/*---------------------------------------------------------------------------*\
| =========                 |                                                 |
| \\      /  F ield         | OpenFOAM: The Open Source CFD Toolbox           |
|  \\    /   O peration     | Version:  4.1                                   |
|   \\  /    A nd           | Web:      www.OpenFOAM.org                      |
|    \\/     M anipulation  |                                                 |
\*---------------------------------------------------------------------------*/
Build  : 4.1
Exec   : interDyMFoam
Date   : May 30 2020
Time   : 14:14:53
Host   : "openfoam-vm"
PID    : 3952
Case   : /home/openfoam/Downloads/floatingObjectSphere
nProcs : 1
sigFpe : Enabling floating point exception trapping (FOAM_SIGFPE).
fileModificationChecking : Monitoring run-time modified files using timeStampMaster
allowSystemOperations : Allowing user-supplied system call operations

// * * * * * * * * * * * * * * * * * * * * * * * * * * * * * * * * * * * * * //
Create time

Create mesh for time = 0

Using #calcEntry at line 48 in file "/home/openfoam/Downloads/floatingObjectSphere/constant/dynamicMeshDict.rigidBodyMotionCoeffs.bodies.floatingObject"
Using #codeStream with "/home/openfoam/Downloads/floatingObjectSphere/dynamicCode/platforms/linux64GccDPInt32Opt/lib/libcodeStream_e9a8343a917457219c011d2116346dc998e6aaeb.so"
Creating new library in "dynamicCode/_e9a8343a917457219c011d2116346dc998e6aaeb/platforms/linux64GccDPInt32Opt/lib/libcodeStream_e9a8343a917457219c011d2116346dc998e6aaeb.so"
Invoking "wmake -s libso /home/openfoam/Downloads/floatingObjectSphere/dynamicCode/_e9a8343a917457219c011d2116346dc998e6aaeb"
wmakeLnInclude: linking include files to ./lnInclude
Making dependency list for source file codeStreamTemplate.C
'/home/openfoam/Downloads/floatingObjectSphere/dynamicCode/_e9a8343a917457219c011d2116346dc998e6aaeb/../platforms/linux64GccDPInt32Opt/lib/libcodeStream_e9a8343a917457219c011d2116346dc998e6aaeb.so' is up to date.
Selecting dynamicFvMesh dynamicMotionSolverFvMesh
Using #calcEntry at line 48 in file "/home/openfoam/Downloads/floatingObjectSphere/constant/dynamicMeshDict.rigidBodyMotionCoeffs.bodies.floatingObject"
Selecting motion solver: rigidBodyMotion
Using #calcEntry at line 48 in file "/home/openfoam/Downloads/floatingObjectSphere/constant/dynamicMeshDict.rigidBodyMotionCoeffs.bodies.floatingObject"
Selecting rigidBodySolver Newmark

PIMPLE: no residual control data found. Calculations will employ 3 corrector loops

Reading field p_rgh

Reading field U

Reading/calculating face flux field phi

Reading transportProperties

Selecting incompressible transport model Newtonian
Selecting incompressible transport model Newtonian
Selecting turbulence model type RAS
Selecting RAS turbulence model kEpsilon
kEpsilonCoeffs
{
    Cmu             0.09;
    C1              1.44;
    C2              1.92;
    C3              -0.33;
    sigmak          1;
    sigmaEps        1.3;
}


Reading g

Reading hRef
Calculating field g.h

No MRF models present

No finite volume options present

GAMGPCG:  Solving for pcorr, Initial residual = 0, Final residual = 0, No Iterations 0
time step continuity errors : sum local = 0, global = 0, cumulative = 0
Reading/calculating face velocity Uf

Courant Number mean: 0 max: 0

Starting time loop

Courant Number mean: 0 max: 0
Interface Courant Number mean: 0 max: 0
deltaT = 0.0111111111111
Time = 0.0111111

PIMPLE: iteration 1
forces forces:
    Not including porosity effects
Rigid-body motion of the floatingObject
    Centre of rotation: (0.5 0.45 0.1)
    Orientation: (0.99999996031 0 -0.000281743844489 0 1 0 0.000281743844489 0 0.99999996031)
    Linear velocity: (0 -2.49594439054e-17 0)
    Angular velocity: (0 0.0507138926789 0)
Execution time for mesh.update() = 0.43 s
GAMGPCG:  Solving for pcorr, Initial residual = 1, Final residual = 2.71177197657e-06, No Iterations 8
time step continuity errors : sum local = 3.27429956605e-11, global = -1.36974193138e-11, cumulative = -1.36974193138e-11
smoothSolver:  Solving for alpha.water, Initial residual = 3.3028878023e-05, Final residual = 1.35577460127e-09, No Iterations 1
Phase-1 volume fraction = 0.561101824325  Min(alpha.water) = 0  Max(alpha.water) = 1.00000000394
MULES: Correcting alpha.water
MULES: Correcting alpha.water
Phase-1 volume fraction = 0.561101824325  Min(alpha.water) = 0  Max(alpha.water) = 1.00000000394
GAMG:  Solving for p_rgh, Initial residual = 1, Final residual = 0.00490495447335, No Iterations 1
time step continuity errors : sum local = 0.00372790809179, global = -0.000493162569864, cumulative = -0.000493162583561
PIMPLE: iteration 2
forces forces:
    Not including porosity effects
Rigid-body motion of the floatingObject
    Centre of rotation: (0.5 0.449993586063 0.1)
    Orientation: (0.999999973896 0 -0.0002284909586 0 1 0 0.0002284909586 0 0.999999973896)
    Linear velocity: (0 -0.00115450865932 0)
    Angular velocity: (0 0.0411283729059 0)
Execution time for mesh.update() = 0.29 s
GAMGPCG:  Solving for pcorr, Initial residual = 1, Final residual = 4.04653561166e-06, No Iterations 6
time step continuity errors : sum local = 1.50833505564e-08, global = 3.08392586778e-09, cumulative = -0.000493159499636
smoothSolver:  Solving for alpha.water, Initial residual = 3.94552592511e-05, Final residual = 1.05235192653e-09, No Iterations 1
Phase-1 volume fraction = 0.56110182607  Min(alpha.water) = 0  Max(alpha.water) = 1.00017121528
Applying the previous iteration compression flux
MULES: Correcting alpha.water
MULES: Correcting alpha.water
MULES: Correcting alpha.water
Phase-1 volume fraction = 0.56110182607  Min(alpha.water) = -9.46117523045e-14  Max(alpha.water) = 1.00017121528
GAMG:  Solving for p_rgh, Initial residual = 0.000784799617791, Final residual = 7.14283713322e-06, No Iterations 4
time step continuity errors : sum local = 9.27097855237e-05, global = -3.90169568786e-05, cumulative = -0.000532176456514
PIMPLE: iteration 3
forces forces:
    Not including porosity effects
Rigid-body motion of the floatingObject
    Centre of rotation: (0.5 0.449999806155 0.1)
    Orientation: (0.999999999742 0 -2.27060299324e-05 0 1 0 2.27060299324e-05 0 0.999999999742)
    Linear velocity: (0 -3.48920315927e-05 0)
    Angular velocity: (0 0.00408708538818 0)
Execution time for mesh.update() = 0.29 s
GAMGPCG:  Solving for pcorr, Initial residual = 1, Final residual = 1.88322448784e-06, No Iterations 6
time step continuity errors : sum local = 1.97914245061e-10, global = -2.29951511892e-11, cumulative = -0.000532176479509
smoothSolver:  Solving for alpha.water, Initial residual = 4.56692894968e-05, Final residual = 2.85367535495e-09, No Iterations 1
Phase-1 volume fraction = 0.561101827937  Min(alpha.water) = -2.53847901439e-19  Max(alpha.water) = 1.00083348665
Applying the previous iteration compression flux
MULES: Correcting alpha.water
MULES: Correcting alpha.water
MULES: Correcting alpha.water
Phase-1 volume fraction = 0.561101827937  Min(alpha.water) = -3.90172801355e-09  Max(alpha.water) = 1.00083348665
GAMGPCG:  Solving for p_rgh, Initial residual = 0.000471359833017, Final residual = 7.30832546276e-09, No Iterations 4
time step continuity errors : sum local = 1.74688400405e-07, global = 9.15433166892e-10, cumulative = -0.000532175564076
smoothSolver:  Solving for epsilon, Initial residual = 0.0169752236858, Final residual = 1.54755915934e-07, No Iterations 4
smoothSolver:  Solving for k, Initial residual = 0.999999999689, Final residual = 1.53835188582e-07, No Iterations 6
ExecutionTime = 10.47 s  ClockTime = 14 s

Courant Number mean: 0.000887416192656 max: 0.14949354941
Interface Courant Number mean: 3.31985737139e-05 max: 0.14949354941
deltaT = 0.0126984126984
Time = 0.0238095

PIMPLE: iteration 1
forces forces:
    Not including porosity effects
Rigid-body motion of the floatingObject
    Centre of rotation: (0.5 0.44999926662 0.1)
    Orientation: (0.999999996171 0 -8.75126588357e-05 0 1 0 8.75126588357e-05 0 0.999999996171)
    Linear velocity: (0 -5.00848070587e-05 0)
    Angular velocity: (0 0.00611995868139 0)
Execution time for mesh.update() = 0.31 s
GAMGPCG:  Solving for pcorr, Initial residual = 1, Final residual = 8.98628631872e-06, No Iterations 7
time step continuity errors : sum local = 3.43405362223e-11, global = 3.06121128269e-11, cumulative = -0.000532175533464
smoothSolver:  Solving for alpha.water, Initial residual = 5.23983962397e-05, Final residual = 3.06440620752e-12, No Iterations 2
Phase-1 volume fraction = 0.56110182794  Min(alpha.water) = -4.78773836945e-13  Max(alpha.water) = 1.00083341591
Applying the previous iteration compression flux
MULES: Correcting alpha.water
MULES: Correcting alpha.water
MULES: Correcting alpha.water
Phase-1 volume fraction = 0.56110182794  Min(alpha.water) = -4.7877380151e-13  Max(alpha.water) = 1.00083341591
GAMG:  Solving for p_rgh, Initial residual = 0.000594244068136, Final residual = 5.13726758925e-06, No Iterations 2
time step continuity errors : sum local = 9.23217406104e-05, global = 3.51400224753e-06, cumulative = -0.000528661531217
PIMPLE: iteration 2
forces forces:
    Not including porosity effects
Rigid-body motion of the floatingObject
    Centre of rotation: (0.5 0.44999955965 0.1)
    Orientation: (0.999999997898 0 -6.48437334481e-05 0 1 0 6.48437334481e-05 0 0.999999997898)
    Linear velocity: (0 -3.93261748635e-06 0)
    Angular velocity: (0 0.0025496029224 0)
Execution time for mesh.update() = 0.3 s
GAMGPCG:  Solving for pcorr, Initial residual = 1, Final residual = 2.88588267905e-06, No Iterations 7
time step continuity errors : sum local = 2.76593969689e-10, global = -6.50584741742e-11, cumulative = -0.000528661596275
smoothSolver:  Solving for alpha.water, Initial residual = 1.36909277945e-05, Final residual = 3.31858399769e-09, No Iterations 1
Phase-1 volume fraction = 0.561101828267  Min(alpha.water) = -4.76167076928e-13  Max(alpha.water) = 1.00083343329
Applying the previous iteration compression flux
MULES: Correcting alpha.water
MULES: Correcting alpha.water
MULES: Correcting alpha.water
Phase-1 volume fraction = 0.561101828267  Min(alpha.water) = -5.42760498321e-13  Max(alpha.water) = 1.00083343329
GAMG:  Solving for p_rgh, Initial residual = 0.00015280916326, Final residual = 8.59273299225e-07, No Iterations 2
time step continuity errors : sum local = 1.54175097577e-05, global = -1.56251196131e-07, cumulative = -0.000528817847471
PIMPLE: iteration 3
forces forces:
    Not including porosity effects
Rigid-body motion of the floatingObject
    Centre of rotation: (0.5 0.449999520539 0.1)
    Orientation: (0.999999997941 0 -6.41683726641e-05 0 1 0 6.41683726641e-05 0 0.999999997941)
    Linear velocity: (0 -1.00925606327e-05 0)
    Angular velocity: (0 0.00244323359871 0)
Execution time for mesh.update() = 0.33 s
GAMGPCG:  Solving for pcorr, Initial residual = 1, Final residual = 6.58065684487e-06, No Iterations 6
time step continuity errors : sum local = 1.13577924769e-10, global = 2.20355323804e-11, cumulative = -0.000528817825436
smoothSolver:  Solving for alpha.water, Initial residual = 9.84758786743e-06, Final residual = 4.39343599548e-09, No Iterations 1
Phase-1 volume fraction = 0.561101827089  Min(alpha.water) = -4.75536979422e-13  Max(alpha.water) = 1.00083343368
Applying the previous iteration compression flux
MULES: Correcting alpha.water
MULES: Correcting alpha.water
MULES: Correcting alpha.water
Phase-1 volume fraction = 0.561101827089  Min(alpha.water) = -6.25902849493e-11  Max(alpha.water) = 1.00083343368
GAMGPCG:  Solving for p_rgh, Initial residual = 2.32073591133e-05, Final residual = 6.64137794944e-09, No Iterations 3
time step continuity errors : sum local = 1.18961750931e-07, global = -1.78191881631e-09, cumulative = -0.000528819607354
smoothSolver:  Solving for epsilon, Initial residual = 0.0196476842467, Final residual = 8.16285425621e-07, No Iterations 3
smoothSolver:  Solving for k, Initial residual = 0.720753687665, Final residual = 1.15454229015e-07, No Iterations 5
ExecutionTime = 18.63 s  ClockTime = 22 s

Courant Number mean: 0.00157951808551 max: 0.161387437003
Interface Courant Number mean: 8.0447650971e-05 max: 0.161387437003
deltaT = 0.0126984126984
Time = 0.0365079

PIMPLE: iteration 1
forces forces:
    Not including porosity effects
Rigid-body motion of the floatingObject
    Centre of rotation: (0.5 0.450000228984 0.1)
    Orientation: (0.999999999875 0 -1.57879868852e-05 0 1 0 1.57879868852e-05 0 0.999999999875)
    Linear velocity: (0 0.000121672670014 0)
    Angular velocity: (0 -0.0100631443657 0)
Execution time for mesh.update() = 0.32 s
GAMGPCG:  Solving for pcorr, Initial residual = 1, Final residual = 5.14496971944e-06, No Iterations 7
time step continuity errors : sum local = 5.37680010744e-11, global = -3.74806628562e-11, cumulative = -0.000528819644835
smoothSolver:  Solving for alpha.water, Initial residual = 5.76034045197e-05, Final residual = 9.83863076935e-12, No Iterations 2
Phase-1 volume fraction = 0.561101827099  Min(alpha.water) = -4.5760895835e-13  Max(alpha.water) = 1.00083336555
Applying the previous iteration compression flux
MULES: Correcting alpha.water
MULES: Correcting alpha.water
MULES: Correcting alpha.water
Phase-1 volume fraction = 0.561101827099  Min(alpha.water) = -2.5009772255e-12  Max(alpha.water) = 1.00083336541
GAMG:  Solving for p_rgh, Initial residual = 0.000484057481941, Final residual = 2.98370736824e-06, No Iterations 2
time step continuity errors : sum local = 5.32503532557e-05, global = -7.49103861708e-07, cumulative = -0.000529568748697
PIMPLE: iteration 2
forces forces:
    Not including porosity effects
Rigid-body motion of the floatingObject
    Centre of rotation: (0.5 0.449999639421 0.1)
    Orientation: (0.999999998808 0 -4.8816289012e-05 0 1 0 4.8816289012e-05 0 0.999999998808)
    Linear velocity: (0 2.88165492386e-05 0)
    Angular velocity: (0 -0.0048611867778 0)
Execution time for mesh.update() = 0.32 s
GAMGPCG:  Solving for pcorr, Initial residual = 1, Final residual = 9.7418486886e-06, No Iterations 6
time step continuity errors : sum local = 5.42950276813e-10, global = -1.68147319528e-10, cumulative = -0.000529568916844
smoothSolver:  Solving for alpha.water, Initial residual = 2.63780714865e-05, Final residual = 1.46533689075e-11, No Iterations 2
Phase-1 volume fraction = 0.561101827103  Min(alpha.water) = -4.38823955832e-13  Max(alpha.water) = 1.00083341016
Applying the previous iteration compression flux
MULES: Correcting alpha.water
MULES: Correcting alpha.water
MULES: Correcting alpha.water
Phase-1 volume fraction = 0.561101827103  Min(alpha.water) = -9.14035770852e-11  Max(alpha.water) = 1.0008334098
GAMG:  Solving for p_rgh, Initial residual = 0.000155196277494, Final residual = 1.12049413976e-06, No Iterations 2
time step continuity errors : sum local = 1.99675028306e-05, global = -2.25772112165e-06, cumulative = -0.000531826637966
PIMPLE: iteration 3
forces forces:
    Not including porosity effects
Rigid-body motion of the floatingObject
    Centre of rotation: (0.5 0.449999873848 0.1)
    Orientation: (0.999999998681 0 -5.13529412728e-05 0 1 0 5.13529412728e-05 0 0.999999998681)
    Linear velocity: (0 6.57387969561e-05 0)
    Angular velocity: (0 -0.00446166404623 0)
Execution time for mesh.update() = 0.31 s
GAMGPCG:  Solving for pcorr, Initial residual = 1, Final residual = 2.18971272657e-06, No Iterations 7
time step continuity errors : sum local = 4.47332398473e-11, global = -1.45993151257e-11, cumulative = -0.000531826652565
smoothSolver:  Solving for alpha.water, Initial residual = 1.60454208001e-05, Final residual = 6.43370834364e-09, No Iterations 1
Phase-1 volume fraction = 0.561101829202  Min(alpha.water) = -4.39090935084e-13  Max(alpha.water) = 1.00083341347
Applying the previous iteration compression flux
MULES: Correcting alpha.water
MULES: Correcting alpha.water
MULES: Correcting alpha.water
Phase-1 volume fraction = 0.561101829202  Min(alpha.water) = -7.06434561812e-09  Max(alpha.water) = 1.00083341309
GAMGPCG:  Solving for p_rgh, Initial residual = 1.528114985e-05, Final residual = 1.75787231951e-09, No Iterations 3
time step continuity errors : sum local = 3.13171172891e-08, global = -2.34244050514e-09, cumulative = -0.000531828995006
smoothSolver:  Solving for epsilon, Initial residual = 0.0185415057497, Final residual = 9.16333368763e-07, No Iterations 3
smoothSolver:  Solving for k, Initial residual = 0.542336350212, Final residual = 9.82175473328e-08, No Iterations 5
ExecutionTime = 27.01 s  ClockTime = 30 s

Courant Number mean: 0.00265713068536 max: 0.327495508866
Interface Courant Number mean: 0.000147810877613 max: 0.327495508866
deltaT = 0.0126984126984
Time = 0.0492063

PIMPLE: iteration 1
forces forces:
    Not including porosity effects
Rigid-body motion of the floatingObject
    Centre of rotation: (0.5 0.450000921199 0.1)
    Orientation: (0.999999999923 0 1.24411196319e-05 0 1 0 -1.24411196319e-05 0 0.999999999923)
    Linear velocity: (0 9.92189836564e-05 0)
    Angular velocity: (0 -0.00558590054985 0)
Execution time for mesh.update() = 0.3 s
GAMGPCG:  Solving for pcorr, Initial residual = 1, Final residual = 7.10687150451e-06, No Iterations 7
time step continuity errors : sum local = 8.17223703328e-12, global = 6.98971308954e-12, cumulative = -0.000531828988016
smoothSolver:  Solving for alpha.water, Initial residual = 8.75004703957e-05, Final residual = 1.29514503846e-10, No Iterations 2
Phase-1 volume fraction = 0.561101829321  Min(alpha.water) = -3.29897992979e-13  Max(alpha.water) = 1.00083332045
Applying the previous iteration compression flux
MULES: Correcting alpha.water
MULES: Correcting alpha.water
MULES: Correcting alpha.water
Phase-1 volume fraction = 0.561101829321  Min(alpha.water) = -3.08062992662e-10  Max(alpha.water) = 1.00083332045
GAMG:  Solving for p_rgh, Initial residual = 0.000614903614715, Final residual = 2.93134653491e-06, No Iterations 2
time step continuity errors : sum local = 5.21218037594e-05, global = -1.34658831837e-06, cumulative = -0.000533175576334
PIMPLE: iteration 2
forces forces:
    Not including porosity effects
Rigid-body motion of the floatingObject
    Centre of rotation: (0.5 0.450001397508 0.1)
    Orientation: (0.999999998826 0 4.84545446381e-05 0 1 0 -4.84545446381e-05 0 0.999999998826)
    Linear velocity: (0 0.000174237661629 0)
    Angular velocity: (0 -0.0112580149913 0)
Execution time for mesh.update() = 0.32 s
GAMGPCG:  Solving for pcorr, Initial residual = 1, Final residual = 2.92231143541e-06, No Iterations 8
time step continuity errors : sum local = 1.60692582898e-10, global = 7.59650209453e-11, cumulative = -0.000533175500369
smoothSolver:  Solving for alpha.water, Initial residual = 3.02899411145e-05, Final residual = 8.23534223858e-11, No Iterations 2
Phase-1 volume fraction = 0.56110182928  Min(alpha.water) = -3.26288491795e-13  Max(alpha.water) = 1.00083326853
Applying the previous iteration compression flux
MULES: Correcting alpha.water
MULES: Correcting alpha.water
MULES: Correcting alpha.water
Phase-1 volume fraction = 0.56110182928  Min(alpha.water) = -4.70106945317e-09  Max(alpha.water) = 1.00083326853
GAMG:  Solving for p_rgh, Initial residual = 0.000125830948499, Final residual = 7.67095019963e-07, No Iterations 2
time step continuity errors : sum local = 1.36431039159e-05, global = -2.11339070897e-06, cumulative = -0.000535288891078
PIMPLE: iteration 3
forces forces:
    Not including porosity effects
Rigid-body motion of the floatingObject
    Centre of rotation: (0.5 0.450001206678 0.1)
    Orientation: (0.999999998585 0 5.31984526975e-05 0 1 0 -5.31984526975e-05 0 0.999999998585)
    Linear velocity: (0 0.000144181902132 0)
    Angular velocity: (0 -0.0120051805116 0)
Execution time for mesh.update() = 0.28 s
GAMGPCG:  Solving for pcorr, Initial residual = 1, Final residual = 3.94083330541e-06, No Iterations 6
time step continuity errors : sum local = 5.58370925831e-11, global = -2.07167965815e-11, cumulative = -0.000535288911795
smoothSolver:  Solving for alpha.water, Initial residual = 3.19841559983e-05, Final residual = 9.11011375348e-11, No Iterations 2
Phase-1 volume fraction = 0.56110182927  Min(alpha.water) = -3.25745005587e-13  Max(alpha.water) = 1.00083326172
Applying the previous iteration compression flux
MULES: Correcting alpha.water
MULES: Correcting alpha.water
MULES: Correcting alpha.water
Phase-1 volume fraction = 0.56110182927  Min(alpha.water) = -5.30681955585e-09  Max(alpha.water) = 1.00083326172
GAMGPCG:  Solving for p_rgh, Initial residual = 1.32250822539e-05, Final residual = 3.41397255534e-09, No Iterations 3
time step continuity errors : sum local = 6.07528219369e-08, global = -2.32804182362e-09, cumulative = -0.000535291239837
smoothSolver:  Solving for epsilon, Initial residual = 0.0190624599659, Final residual = 4.77026708533e-08, No Iterations 4
smoothSolver:  Solving for k, Initial residual = 0.434699971251, Final residual = 1.05502894888e-07, No Iterations 5
ExecutionTime = 34.81 s  ClockTime = 38 s

Courant Number mean: 0.00380690417116 max: 0.398425900935
Interface Courant Number mean: 0.00019782214758 max: 0.398425900935
deltaT = 0.0126984126984
Time = 0.0619048

PIMPLE: iteration 1
forces forces:
    Not including porosity effects
Rigid-body motion of the floatingObject
    Centre of rotation: (0.5 0.450004094396 0.1)
    Orientation: (0.999999956526 0 0.00029486838374 0 1 0 -0.00029486838374 0 0.999999956526)
    Linear velocity: (0 0.000310633612369 0)
    Angular velocity: (0 -0.0260578342967 0)
Execution time for mesh.update() = 0.3 s
GAMGPCG:  Solving for pcorr, Initial residual = 1, Final residual = 8.27225453343e-06, No Iterations 7
time step continuity errors : sum local = 7.60246260932e-11, global = -6.46694532649e-11, cumulative = -0.000535291304506
smoothSolver:  Solving for alpha.water, Initial residual = 0.000126797906856, Final residual = 4.94193254563e-10, No Iterations 2
Phase-1 volume fraction = 0.56110182969  Min(alpha.water) = -2.75640867331e-13  Max(alpha.water) = 1.00083291719
Applying the previous iteration compression flux
MULES: Correcting alpha.water
MULES: Correcting alpha.water
MULES: Correcting alpha.water
Phase-1 volume fraction = 0.56110182969  Min(alpha.water) = -1.84149065238e-09  Max(alpha.water) = 1.00083291719
GAMG:  Solving for p_rgh, Initial residual = 0.000804342213092, Final residual = 3.81115273966e-06, No Iterations 2
time step continuity errors : sum local = 6.78711836763e-05, global = -3.29652744266e-07, cumulative = -0.000535620957251
PIMPLE: iteration 2
forces forces:
    Not including porosity effects
Rigid-body motion of the floatingObject
    Centre of rotation: (0.5 0.450003259342 0.1)
    Orientation: (0.999999968504 0 0.000250980694774 0 1 0 -0.000250980694774 0 0.999999968504)
    Linear velocity: (0 0.000179112605835 0)
    Angular velocity: (0 -0.0191455230265 0)
Execution time for mesh.update() = 0.29 s
GAMGPCG:  Solving for pcorr, Initial residual = 1, Final residual = 9.41370323803e-06, No Iterations 6
time step continuity errors : sum local = 6.65981937556e-10, global = -1.00000790619e-10, cumulative = -0.000535621057251
smoothSolver:  Solving for alpha.water, Initial residual = 5.26576029918e-05, Final residual = 3.55206262549e-10, No Iterations 2
Phase-1 volume fraction = 0.561101829511  Min(alpha.water) = -2.71901027711e-13  Max(alpha.water) = 1.0008329755
Applying the previous iteration compression flux
MULES: Correcting alpha.water
MULES: Correcting alpha.water
MULES: Correcting alpha.water
Phase-1 volume fraction = 0.561101829511  Min(alpha.water) = -4.74790579337e-09  Max(alpha.water) = 1.0008329755
GAMG:  Solving for p_rgh, Initial residual = 0.000135258864397, Final residual = 8.43390033387e-07, No Iterations 2
time step continuity errors : sum local = 1.49933867452e-05, global = -5.72267646066e-07, cumulative = -0.000536193324897
PIMPLE: iteration 3
forces forces:
    Not including porosity effects
Rigid-body motion of the floatingObject
    Centre of rotation: (0.5 0.450003512902 0.1)
    Orientation: (0.999999969478 0 0.000247068924257 0 1 0 -0.000247068924257 0 0.999999969478)
    Linear velocity: (0 0.000219048277855 0)
    Angular velocity: (0 -0.0185294191509 0)
Execution time for mesh.update() = 0.3 s
GAMGPCG:  Solving for pcorr, Initial residual = 1, Final residual = 7.47987876492e-06, No Iterations 6
time step continuity errors : sum local = 1.14742915824e-10, global = -5.59090536148e-11, cumulative = -0.000536193380806
smoothSolver:  Solving for alpha.water, Initial residual = 5.87176245915e-05, Final residual = 4.05192393696e-10, No Iterations 2
Phase-1 volume fraction = 0.561101829497  Min(alpha.water) = -2.71433760741e-13  Max(alpha.water) = 1.00083298062
Applying the previous iteration compression flux
MULES: Correcting alpha.water
MULES: Correcting alpha.water
MULES: Correcting alpha.water
Phase-1 volume fraction = 0.561101829497  Min(alpha.water) = -1.05683087174e-08  Max(alpha.water) = 1.00083298062
GAMGPCG:  Solving for p_rgh, Initial residual = 1.283068643e-05, Final residual = 2.01766840476e-09, No Iterations 3
time step continuity errors : sum local = 3.58493224573e-08, global = -6.48446708363e-10, cumulative = -0.000536194029253
smoothSolver:  Solving for epsilon, Initial residual = 0.0206405103667, Final residual = 6.90721110202e-08, No Iterations 4
smoothSolver:  Solving for k, Initial residual = 0.334710189605, Final residual = 1.19790985112e-07, No Iterations 5
ExecutionTime = 42.42 s  ClockTime = 46 s

Courant Number mean: 0.00521148606763 max: 0.448834790339
Interface Courant Number mean: 0.000243385536563 max: 0.448834790339
deltaT = 0.0126984126984
Time = 0.0746032

PIMPLE: iteration 1
forces forces:
    Not including porosity effects
Rigid-body motion of the floatingObject
    Centre of rotation: (0.5 0.450006522136 0.1)
    Orientation: (0.999999886541 0 0.000476359597003 0 1 0 -0.000476359597003 0 0.999999886541)
    Linear velocity: (0 0.000254906144355 0)
    Angular velocity: (0 -0.0175838642483 0)
Execution time for mesh.update() = 0.31 s
GAMGPCG:  Solving for pcorr, Initial residual = 1, Final residual = 6.07977019667e-06, No Iterations 7
time step continuity errors : sum local = 1.06709425202e-11, global = 8.70129537414e-12, cumulative = -0.000536194020552
smoothSolver:  Solving for alpha.water, Initial residual = 0.00014186504605, Final residual = 1.17301085556e-09, No Iterations 2
Phase-1 volume fraction = 0.561101830505  Min(alpha.water) = -2.38530868815e-13  Max(alpha.water) = 1.0008326473
Applying the previous iteration compression flux
MULES: Correcting alpha.water
MULES: Correcting alpha.water
MULES: Correcting alpha.water
Phase-1 volume fraction = 0.561101830505  Min(alpha.water) = -1.55821634314e-08  Max(alpha.water) = 1.0008326473
GAMG:  Solving for p_rgh, Initial residual = 0.000896348301218, Final residual = 4.21832581813e-06, No Iterations 2
time step continuity errors : sum local = 7.49358933008e-05, global = -9.35627384814e-07, cumulative = -0.000537129647937
PIMPLE: iteration 2
forces forces:
    Not including porosity effects
Rigid-body motion of the floatingObject
    Centre of rotation: (0.5 0.450007347684 0.1)
    Orientation: (0.999999863239 0 0.000522994162657 0 1 0 -0.000522994162657 0 0.999999863239)
    Linear velocity: (0 0.0003849298845 0)
    Angular velocity: (0 -0.0249288092563 0)
Execution time for mesh.update() = 0.29 s
GAMGPCG:  Solving for pcorr, Initial residual = 1, Final residual = 8.26900781024e-06, No Iterations 7
time step continuity errors : sum local = 6.47198325066e-10, global = 1.73002600279e-11, cumulative = -0.000537129630636
smoothSolver:  Solving for alpha.water, Initial residual = 8.77165938985e-05, Final residual = 1.01884726122e-09, No Iterations 2
Phase-1 volume fraction = 0.561101830057  Min(alpha.water) = -2.35068892843e-13  Max(alpha.water) = 1.00083257959
Applying the previous iteration compression flux
MULES: Correcting alpha.water
MULES: Correcting alpha.water
MULES: Correcting alpha.water
Phase-1 volume fraction = 0.561101830057  Min(alpha.water) = -2.14293526443e-09  Max(alpha.water) = 1.00083257959
GAMG:  Solving for p_rgh, Initial residual = 0.000116264761449, Final residual = 8.71682000286e-07, No Iterations 2
time step continuity errors : sum local = 1.54858260746e-05, global = -5.60305300294e-07, cumulative = -0.000537689935937
PIMPLE: iteration 3
forces forces:
    Not including porosity effects
Rigid-body motion of the floatingObject
    Centre of rotation: (0.5 0.45000703763 0.1)
    Orientation: (0.999999859781 0 0.000529563571177 0 1 0 -0.000529563571177 0 0.999999859781)
    Linear velocity: (0 0.00033609648015 0)
    Angular velocity: (0 -0.0259634912414 0)
Execution time for mesh.update() = 0.29 s
GAMGPCG:  Solving for pcorr, Initial residual = 1, Final residual = 3.24675038228e-06, No Iterations 6
time step continuity errors : sum local = 5.19207564753e-11, global = 1.88184190721e-11, cumulative = -0.000537689917118
smoothSolver:  Solving for alpha.water, Initial residual = 9.04835103325e-05, Final residual = 1.09086608092e-09, No Iterations 2
Phase-1 volume fraction = 0.561101830019  Min(alpha.water) = -2.34751244698e-13  Max(alpha.water) = 1.00083257014
Applying the previous iteration compression flux
MULES: Correcting alpha.water
MULES: Correcting alpha.water
MULES: Correcting alpha.water
Phase-1 volume fraction = 0.561101830019  Min(alpha.water) = -2.02882073369e-08  Max(alpha.water) = 1.00083257014
GAMGPCG:  Solving for p_rgh, Initial residual = 1.25181658951e-05, Final residual = 4.39020617488e-09, No Iterations 3
time step continuity errors : sum local = 7.80692277821e-08, global = 4.12057042195e-09, cumulative = -0.000537685796548
smoothSolver:  Solving for epsilon, Initial residual = 0.0223287058172, Final residual = 1.03119274922e-07, No Iterations 4
smoothSolver:  Solving for k, Initial residual = 0.265500536391, Final residual = 1.44859473806e-07, No Iterations 5
ExecutionTime = 49.75 s  ClockTime = 53 s

Courant Number mean: 0.00626183662441 max: 0.490881906148
Interface Courant Number mean: 0.000322445621736 max: 0.490881906148
deltaT = 0.0126984126984
Time = 0.0873016

PIMPLE: iteration 1
forces forces:
    Not including porosity effects
Rigid-body motion of the floatingObject
    Centre of rotation: (0.5 0.450012893327 0.1)
    Orientation: (0.999999538846 0 0.000960368271981 0 1 0 -0.000960368271981 0 0.999999538846)
    Linear velocity: (0 0.000586175839818 0)
    Angular velocity: (0 -0.0418882684879 0)
Execution time for mesh.update() = 0.33 s
GAMGPCG:  Solving for pcorr, Initial residual = 1, Final residual = 8.7615194632e-06, No Iterations 7
time step continuity errors : sum local = 8.63171498498e-11, global = -7.54529215426e-11, cumulative = -0.000537685872001
smoothSolver:  Solving for alpha.water, Initial residual = 0.000182218373217, Final residual = 2.37160740378e-09, No Iterations 2
Phase-1 volume fraction = 0.561101832131  Min(alpha.water) = -1.96059461618e-13  Max(alpha.water) = 1.00083194576
Applying the previous iteration compression flux
MULES: Correcting alpha.water
MULES: Correcting alpha.water
MULES: Correcting alpha.water
Phase-1 volume fraction = 0.561101832131  Min(alpha.water) = -3.53611053404e-08  Max(alpha.water) = 1.00083194576
GAMG:  Solving for p_rgh, Initial residual = 0.00105986925315, Final residual = 5.04316548661e-06, No Iterations 2
time step continuity errors : sum local = 9.00093838575e-05, global = 4.06872677958e-07, cumulative = -0.000537278999323
PIMPLE: iteration 2
forces forces:
    Not including porosity effects
Rigid-body motion of the floatingObject
    Centre of rotation: (0.5 0.45001209645 0.1)
    Orientation: (0.99999959025 0 0.000905262043756 0 1 0 -0.000905262043756 0 0.99999959025)
    Linear velocity: (0 0.000460667587197 0)
    Angular velocity: (0 -0.0332090337654 0)
Execution time for mesh.update() = 0.29 s
GAMGPCG:  Solving for pcorr, Initial residual = 1, Final residual = 7.2982011432e-06, No Iterations 6
time step continuity errors : sum local = 6.84862831697e-10, global = 9.8509280342e-11, cumulative = -0.000537278900814
smoothSolver:  Solving for alpha.water, Initial residual = 0.000106975735734, Final residual = 2.0688607809e-09, No Iterations 2
Phase-1 volume fraction = 0.561101830993  Min(alpha.water) = -1.94903013264e-13  Max(alpha.water) = 1.00083201863
Applying the previous iteration compression flux
MULES: Correcting alpha.water
MULES: Correcting alpha.water
MULES: Correcting alpha.water
Phase-1 volume fraction = 0.561101830993  Min(alpha.water) = -1.43341262449e-06  Max(alpha.water) = 1.00083201863
GAMG:  Solving for p_rgh, Initial residual = 0.000119762587243, Final residual = 8.73855946337e-07, No Iterations 2
time step continuity errors : sum local = 1.55484565048e-05, global = 9.42405939231e-07, cumulative = -0.000536336494874
PIMPLE: iteration 3
forces forces:
    Not including porosity effects
Rigid-body motion of the floatingObject
    Centre of rotation: (0.5 0.45001218164 0.1)
    Orientation: (0.999999594054 0 0.000901050404589 0 1 0 -0.000901050404589 0 0.999999594054)
    Linear velocity: (0 0.000474085088837 0)
    Angular velocity: (0 -0.0325457003261 0)
Execution time for mesh.update() = 0.29 s
GAMGPCG:  Solving for pcorr, Initial residual = 1, Final residual = 7.7183874976e-06, No Iterations 6
time step continuity errors : sum local = 1.22842064145e-10, global = 4.39845047369e-11, cumulative = -0.00053633645089
smoothSolver:  Solving for alpha.water, Initial residual = 0.000112492180725, Final residual = 2.15466802205e-09, No Iterations 2
Phase-1 volume fraction = 0.561101830903  Min(alpha.water) = -1.94715006508e-13  Max(alpha.water) = 1.00083202401
Applying the previous iteration compression flux
MULES: Correcting alpha.water
MULES: Correcting alpha.water
MULES: Correcting alpha.water
Phase-1 volume fraction = 0.561101830903  Min(alpha.water) = -1.18781060919e-06  Max(alpha.water) = 1.00083202401
GAMGPCG:  Solving for p_rgh, Initial residual = 1.07779646896e-05, Final residual = 1.85960407908e-09, No Iterations 3
time step continuity errors : sum local = 3.30786354365e-08, global = -1.29068026478e-09, cumulative = -0.00053633774157
smoothSolver:  Solving for epsilon, Initial residual = 0.0240655253085, Final residual = 1.53306471313e-07, No Iterations 4
smoothSolver:  Solving for k, Initial residual = 0.221190098885, Final residual = 1.80735853491e-07, No Iterations 5
ExecutionTime = 57.21 s  ClockTime = 60 s

Courant Number mean: 0.00760481088752 max: 0.497269818795
Interface Courant Number mean: 0.000435160013058 max: 0.497269818795
deltaT = 0.0126984126984
Time = 0.1

PIMPLE: iteration 1
forces forces:
    Not including porosity effects
Rigid-body motion of the floatingObject
    Centre of rotation: (0.5 0.450018609972 0.1)
    Orientation: (0.999999158254 0 0.00129749392741 0 1 0 -0.00129749392741 0 0.999999158254)
    Linear velocity: (0 0.000538377235301 0)
    Angular velocity: (0 -0.0298941926532 0)
Execution time for mesh.update() = 0.3 s
GAMGPCG:  Solving for pcorr, Initial residual = 1, Final residual = 8.22611098377e-06, No Iterations 7
time step continuity errors : sum local = 2.01994299618e-11, global = 1.74966186242e-11, cumulative = -0.000536337724073
smoothSolver:  Solving for alpha.water, Initial residual = 0.000193924154564, Final residual = 4.24381553275e-09, No Iterations 2
Phase-1 volume fraction = 0.561101834839  Min(alpha.water) = -1.39367326864e-11  Max(alpha.water) = 1.00083143944
Applying the previous iteration compression flux
MULES: Correcting alpha.water
MULES: Correcting alpha.water
MULES: Correcting alpha.water
Phase-1 volume fraction = 0.561101834839  Min(alpha.water) = -4.05227530632e-08  Max(alpha.water) = 1.00083143944
GAMG:  Solving for p_rgh, Initial residual = 0.00119042491871, Final residual = 5.12248964974e-06, No Iterations 2
time step continuity errors : sum local = 9.09431798351e-05, global = 2.07089314843e-07, cumulative = -0.000536130634759
PIMPLE: iteration 2
forces forces:
    Not including porosity effects
Rigid-body motion of the floatingObject
    Centre of rotation: (0.5 0.450019552923 0.1)
    Orientation: (0.999999089566 0 0.00134939542787 0 1 0 -0.00134939542787 0 0.999999089566)
    Linear velocity: (0 0.000686891981181 0)
    Angular velocity: (0 -0.0380686861347 0)
Execution time for mesh.update() = 0.32 s
GAMGPCG:  Solving for pcorr, Initial residual = 1, Final residual = 6.9783012261e-06, No Iterations 8
time step continuity errors : sum local = 6.6152525203e-10, global = -3.89375244314e-10, cumulative = -0.000536131024134
smoothSolver:  Solving for alpha.water, Initial residual = 0.000124703565821, Final residual = 3.46612081723e-09, No Iterations 2
Phase-1 volume fraction = 0.561101832184  Min(alpha.water) = -1.34814660287e-11  Max(alpha.water) = 1.00083136304
Applying the previous iteration compression flux
MULES: Correcting alpha.water
MULES: Correcting alpha.water
MULES: Correcting alpha.water
Phase-1 volume fraction = 0.561101832184  Min(alpha.water) = -2.35782763912e-08  Max(alpha.water) = 1.00083136304
GAMG:  Solving for p_rgh, Initial residual = 9.61607438105e-05, Final residual = 8.23933086825e-07, No Iterations 2
time step continuity errors : sum local = 1.46220792821e-05, global = 3.65799329349e-09, cumulative = -0.000536127366141
PIMPLE: iteration 3
forces forces:
    Not including porosity effects
Rigid-body motion of the floatingObject
    Centre of rotation: (0.5 0.450019185544 0.1)
    Orientation: (0.999999078377 0 0.0013576616229 0 1 0 -0.0013576616229 0 0.999999078377)
    Linear velocity: (0 0.000629029839097 0)
    Angular velocity: (0 -0.0393706130449 0)
Execution time for mesh.update() = 0.29 s
GAMGPCG:  Solving for pcorr, Initial residual = 1, Final residual = 4.44203635688e-06, No Iterations 6
time step continuity errors : sum local = 6.80266690389e-11, global = -2.35645224171e-11, cumulative = -0.000536127389705
smoothSolver:  Solving for alpha.water, Initial residual = 0.000125139026511, Final residual = 3.57551104231e-09, No Iterations 2
Phase-1 volume fraction = 0.56110183201  Min(alpha.water) = -1.3414211517e-11  Max(alpha.water) = 1.00083135104
Applying the previous iteration compression flux
MULES: Correcting alpha.water
MULES: Correcting alpha.water
MULES: Correcting alpha.water
Phase-1 volume fraction = 0.56110183201  Min(alpha.water) = -6.52678551201e-09  Max(alpha.water) = 1.00083135104
GAMGPCG:  Solving for p_rgh, Initial residual = 1.19442586575e-05, Final residual = 7.10799431391e-09, No Iterations 3
time step continuity errors : sum local = 1.26276675688e-07, global = 1.95790898404e-09, cumulative = -0.000536125431796
smoothSolver:  Solving for epsilon, Initial residual = 0.0257728878386, Final residual = 2.21629241662e-07, No Iterations 4
smoothSolver:  Solving for k, Initial residual = 0.189766267986, Final residual = 2.23466355699e-07, No Iterations 5
ExecutionTime = 71.4 s  ClockTime = 75 s

Courant Number mean: 0.00861097705995 max: 0.473008716404
Interface Courant Number mean: 0.000548092801238 max: 0.473008716404
deltaT = 0.0142857142857
Time = 0.114286

PIMPLE: iteration 1
forces forces:
    Not including porosity effects
Rigid-body motion of the floatingObject
    Centre of rotation: (0.5 0.450030448335 0.1)
    Orientation: (0.999997893226 0 0.00205269198082 0 1 0 -0.00205269198082 0 0.999997893226)
    Linear velocity: (0 0.000947760900653 0)
    Angular velocity: (0 -0.057933780485 0)
Execution time for mesh.update() = 0.4 s
GAMGPCG:  Solving for pcorr, Initial residual = 1, Final residual = 6.66742041845e-06, No Iterations 7
time step continuity errors : sum local = 8.33444526438e-11, global = -5.58873451561e-11, cumulative = -0.000536125487683
smoothSolver:  Solving for alpha.water, Initial residual = 0.000261685746639, Final residual = 5.38107051565e-11, No Iterations 3
Phase-1 volume fraction = 0.561101832063  Min(alpha.water) = -1.47333339199e-11  Max(alpha.water) = 1.00083031475
Applying the previous iteration compression flux
MULES: Correcting alpha.water
MULES: Correcting alpha.water
MULES: Correcting alpha.water
Phase-1 volume fraction = 0.561101832063  Min(alpha.water) = -2.04462612198e-10  Max(alpha.water) = 1.00083031475
GAMG:  Solving for p_rgh, Initial residual = 0.00148623069953, Final residual = 6.64367319476e-06, No Iterations 2
time step continuity errors : sum local = 0.00014706967091, global = 4.21452309013e-06, cumulative = -0.000531910964593
PIMPLE: iteration 2
forces forces:
    Not including porosity effects
Rigid-body motion of the floatingObject
    Centre of rotation: (0.5 0.450029482268 0.1)
    Orientation: (0.999998049442 0 0.00197512350698 0 1 0 -0.00197512350698 0 0.999998049442)
    Linear velocity: (0 0.000812511435267 0)
    Angular velocity: (0 -0.047074172123 0)
Execution time for mesh.update() = 0.3 s
GAMGPCG:  Solving for pcorr, Initial residual = 1, Final residual = 7.50076001084e-06, No Iterations 6
time step continuity errors : sum local = 1.14491942711e-09, global = 5.75489885192e-11, cumulative = -0.000531910907044
smoothSolver:  Solving for alpha.water, Initial residual = 0.000167681050013, Final residual = 8.77138312053e-09, No Iterations 2
Phase-1 volume fraction = 0.561101833968  Min(alpha.water) = -1.47746495977e-11  Max(alpha.water) = 1.00083041612
Applying the previous iteration compression flux
MULES: Correcting alpha.water
MULES: Correcting alpha.water
MULES: Correcting alpha.water
Phase-1 volume fraction = 0.561101833968  Min(alpha.water) = -1.63190255226e-09  Max(alpha.water) = 1.00083041612
GAMG:  Solving for p_rgh, Initial residual = 0.000148019272518, Final residual = 1.13217088422e-06, No Iterations 2
time step continuity errors : sum local = 2.49653142588e-05, global = 2.65278579131e-06, cumulative = -0.000529258121253
PIMPLE: iteration 3
forces forces:
    Not including porosity effects
Rigid-body motion of the floatingObject
    Centre of rotation: (0.5 0.450029662816 0.1)
    Orientation: (0.999998057019 0 0.00197128319162 0 1 0 -0.00197128319162 0 0.999998057019)
    Linear velocity: (0 0.00083778815489 0)
    Angular velocity: (0 -0.0465365269257 0)
Execution time for mesh.update() = 0.3 s
GAMGPCG:  Solving for pcorr, Initial residual = 1, Final residual = 5.61723882081e-06, No Iterations 6
time step continuity errors : sum local = 1.42273249484e-10, global = -3.0402683116e-12, cumulative = -0.000529258124293
smoothSolver:  Solving for alpha.water, Initial residual = 0.000161645433915, Final residual = 8.76671288491e-09, No Iterations 2
Phase-1 volume fraction = 0.561101833281  Min(alpha.water) = -1.47771138833e-11  Max(alpha.water) = 1.00083042054
Applying the previous iteration compression flux
MULES: Correcting alpha.water
MULES: Correcting alpha.water
MULES: Correcting alpha.water
Phase-1 volume fraction = 0.561101833281  Min(alpha.water) = -1.06251180413e-09  Max(alpha.water) = 1.00083042054
GAMGPCG:  Solving for p_rgh, Initial residual = 1.48330835265e-05, Final residual = 2.23919843823e-09, No Iterations 3
time step continuity errors : sum local = 4.93680539083e-08, global = -3.5057436173e-09, cumulative = -0.000529261630037
smoothSolver:  Solving for epsilon, Initial residual = 0.0305305327268, Final residual = 5.23822451825e-07, No Iterations 4
smoothSolver:  Solving for k, Initial residual = 0.187446605876, Final residual = 5.12915164467e-07, No Iterations 5
ExecutionTime = 79.2 s  ClockTime = 82 s

Courant Number mean: 0.0113199129289 max: 0.52896036624
Interface Courant Number mean: 0.000759515295117 max: 0.500065298237
deltaT = 0.0142857142857
Time = 0.128571

PIMPLE: iteration 1
forces forces:
    Not including porosity effects
Rigid-body motion of the floatingObject
    Centre of rotation: (0.5 0.450042634435 0.1)
    Orientation: (0.99999659988 0 0.00260772468337 0 1 0 -0.00260772468337 0 0.99999659988)
    Linear velocity: (0 0.000978238563404 0)
    Angular velocity: (0 -0.0425655169516 0)
Execution time for mesh.update() = 0.3 s
GAMGPCG:  Solving for pcorr, Initial residual = 1, Final residual = 9.0118285758e-06, No Iterations 7
time step continuity errors : sum local = 3.04848572101e-11, global = 2.6984268826e-11, cumulative = -0.000529261603053
smoothSolver:  Solving for alpha.water, Initial residual = 0.00027135616109, Final residual = 8.8669799671e-11, No Iterations 3
Phase-1 volume fraction = 0.561101833368  Min(alpha.water) = -3.88095955421e-12  Max(alpha.water) = 1.00082946612
Applying the previous iteration compression flux
MULES: Correcting alpha.water
MULES: Correcting alpha.water
MULES: Correcting alpha.water
Phase-1 volume fraction = 0.561101833368  Min(alpha.water) = -7.23680355805e-09  Max(alpha.water) = 1.00082946612
GAMG:  Solving for p_rgh, Initial residual = 0.00157658893651, Final residual = 7.64249105322e-06, No Iterations 2
time step continuity errors : sum local = 0.000168135279431, global = 2.79570671635e-06, cumulative = -0.000526465896336
PIMPLE: iteration 2
forces forces:
    Not including porosity effects
Rigid-body motion of the floatingObject
    Centre of rotation: (0.5 0.450043845336 0.1)
    Orientation: (0.999996421592 0 0.00267522039814 0 1 0 -0.00267522039814 0 0.999996421592)
    Linear velocity: (0 0.00114776470583 0)
    Angular velocity: (0 -0.0520149499874 0)
Execution time for mesh.update() = 0.28 s
GAMGPCG:  Solving for pcorr, Initial residual = 1, Final residual = 6.0842790292e-06, No Iterations 8
time step continuity errors : sum local = 1.05284508745e-09, global = -6.23214977177e-10, cumulative = -0.000526466519551
smoothSolver:  Solving for alpha.water, Initial residual = 0.000167746535622, Final residual = 6.14938314347e-11, No Iterations 3
Phase-1 volume fraction = 0.561101833263  Min(alpha.water) = -3.86803573564e-12  Max(alpha.water) = 1.00082936428
Applying the previous iteration compression flux
MULES: Correcting alpha.water
MULES: Correcting alpha.water
MULES: Correcting alpha.water
Phase-1 volume fraction = 0.561101833263  Min(alpha.water) = -1.553299025e-08  Max(alpha.water) = 1.00082936428
GAMG:  Solving for p_rgh, Initial residual = 0.000116252232022, Final residual = 3.82027930703e-07, No Iterations 3
time step continuity errors : sum local = 8.39722908361e-06, global = -1.14531602178e-07, cumulative = -0.000526581051153
PIMPLE: iteration 3
forces forces:
    Not including porosity effects
Rigid-body motion of the floatingObject
    Centre of rotation: (0.5 0.450043431468 0.1)
    Orientation: (0.999996388133 0 0.00268769789387 0 1 0 -0.00268769789387 0 0.999996388133)
    Linear velocity: (0 0.00108982308532 0)
    Angular velocity: (0 -0.0537618056709 0)
Execution time for mesh.update() = 0.28 s
GAMGPCG:  Solving for pcorr, Initial residual = 1, Final residual = 3.97450350325e-06, No Iterations 6
time step continuity errors : sum local = 3.75814764507e-11, global = 1.44936813855e-11, cumulative = -0.00052658103666
smoothSolver:  Solving for alpha.water, Initial residual = 0.000170031194196, Final residual = 6.70535890728e-11, No Iterations 3
Phase-1 volume fraction = 0.561101833253  Min(alpha.water) = -3.86563991335e-12  Max(alpha.water) = 1.00082934589
Applying the previous iteration compression flux
MULES: Correcting alpha.water
MULES: Correcting alpha.water
MULES: Correcting alpha.water
Phase-1 volume fraction = 0.561101833253  Min(alpha.water) = -1.39235066439e-08  Max(alpha.water) = 1.00082934589
GAMGPCG:  Solving for p_rgh, Initial residual = 1.57947982623e-05, Final residual = 3.01077635431e-09, No Iterations 3
time step continuity errors : sum local = 6.63316462094e-08, global = 9.74538948982e-10, cumulative = -0.000526580062121
smoothSolver:  Solving for epsilon, Initial residual = 0.0323898278564, Final residual = 7.33734568017e-07, No Iterations 4
smoothSolver:  Solving for k, Initial residual = 0.16475264435, Final residual = 6.28648974258e-07, No Iterations 5
ExecutionTime = 86.55 s  ClockTime = 90 s

Courant Number mean: 0.012675403469 max: 0.564021727422
Interface Courant Number mean: 0.000816690530832 max: 0.523082679803
deltaT = 0.0142857142857
Time = 0.142857

PIMPLE: iteration 1
forces forces:
    Not including porosity effects
Rigid-body motion of the floatingObject
    Centre of rotation: (0.5 0.450061964825 0.1)
    Orientation: (0.999993561325 0 0.00358849675606 0 1 0 -0.00358849675606 0 0.999993561325)
    Linear velocity: (0 0.00150484690489 0)
    Angular velocity: (0 -0.0723506602563 0)
Execution time for mesh.update() = 0.3 s
GAMGPCG:  Solving for pcorr, Initial residual = 1, Final residual = 9.59261171954e-06, No Iterations 7
time step continuity errors : sum local = 1.1884962061e-10, global = -9.01232676797e-11, cumulative = -0.000526580152244
smoothSolver:  Solving for alpha.water, Initial residual = 0.000320554330992, Final residual = 1.35711585955e-10, No Iterations 3
Phase-1 volume fraction = 0.561101833386  Min(alpha.water) = -2.20951920428e-12  Max(alpha.water) = 1.00082800677
Applying the previous iteration compression flux
MULES: Correcting alpha.water
MULES: Correcting alpha.water
MULES: Correcting alpha.water
Phase-1 volume fraction = 0.561101833386  Min(alpha.water) = -1.6650902737e-08  Max(alpha.water) = 1.00082800677
GAMG:  Solving for p_rgh, Initial residual = 0.00160497176929, Final residual = 7.39153154059e-06, No Iterations 2
time step continuity errors : sum local = 0.000162842664509, global = 3.80047067293e-06, cumulative = -0.000522779681571
PIMPLE: iteration 2
forces forces:
    Not including porosity effects
Rigid-body motion of the floatingObject
    Centre of rotation: (0.5 0.450060508088 0.1)
    Orientation: (0.999993844024 0 0.00350883378533 0 1 0 -0.00350883378533 0 0.999993844024)
    Linear velocity: (0 0.00130090373553 0)
    Angular velocity: (0 -0.0611977741266 0)
Execution time for mesh.update() = 0.31 s
GAMGPCG:  Solving for pcorr, Initial residual = 1, Final residual = 7.39982968644e-06, No Iterations 6
time step continuity errors : sum local = 1.2478804562e-09, global = 2.2911510936e-10, cumulative = -0.000522779452456
smoothSolver:  Solving for alpha.water, Initial residual = 0.000199751890556, Final residual = 9.69155345938e-11, No Iterations 3
Phase-1 volume fraction = 0.561101833221  Min(alpha.water) = -2.21600710375e-12  Max(alpha.water) = 1.00082810887
Applying the previous iteration compression flux
MULES: Correcting alpha.water
MULES: Correcting alpha.water
MULES: Correcting alpha.water
Phase-1 volume fraction = 0.561101833221  Min(alpha.water) = -1.41838616756e-08  Max(alpha.water) = 1.00082810887
GAMG:  Solving for p_rgh, Initial residual = 0.000140425000405, Final residual = 1.29679258328e-06, No Iterations 2
time step continuity errors : sum local = 2.84319881354e-05, global = 1.2536861144e-06, cumulative = -0.000521525766342
PIMPLE: iteration 3
forces forces:
    Not including porosity effects
Rigid-body motion of the floatingObject
    Centre of rotation: (0.5 0.450060797172 0.1)
    Orientation: (0.999993857122 0 0.00350509885248 0 1 0 -0.00350509885248 0 0.999993857122)
    Linear velocity: (0 0.00134137551411 0)
    Angular velocity: (0 -0.0606748803122 0)
Execution time for mesh.update() = 0.28 s
GAMGPCG:  Solving for pcorr, Initial residual = 1, Final residual = 4.21797363136e-06, No Iterations 6
time step continuity errors : sum local = 1.21476642196e-10, global = 1.2573800654e-11, cumulative = -0.000521525753768
smoothSolver:  Solving for alpha.water, Initial residual = 0.000193811748169, Final residual = 1.04259232716e-10, No Iterations 3
Phase-1 volume fraction = 0.561101833214  Min(alpha.water) = -2.21648982436e-12  Max(alpha.water) = 1.00082811282
Applying the previous iteration compression flux
MULES: Correcting alpha.water
MULES: Correcting alpha.water
MULES: Correcting alpha.water
Phase-1 volume fraction = 0.561101833214  Min(alpha.water) = -6.84624070862e-09  Max(alpha.water) = 1.00082811282
GAMGPCG:  Solving for p_rgh, Initial residual = 1.64805117412e-05, Final residual = 3.75726944183e-09, No Iterations 3
time step continuity errors : sum local = 8.23987816559e-08, global = -2.90374017025e-09, cumulative = -0.000521528657508
smoothSolver:  Solving for epsilon, Initial residual = 0.0343669696817, Final residual = 1.58067813168e-07, No Iterations 5
smoothSolver:  Solving for k, Initial residual = 0.147741612343, Final residual = 8.29401927398e-07, No Iterations 5
ExecutionTime = 93.97 s  ClockTime = 97 s

Courant Number mean: 0.0142153068182 max: 0.653946629165
Interface Courant Number mean: 0.000860114151535 max: 0.626556934542
deltaT = 0.0142857142857
Time = 0.157143

PIMPLE: iteration 1
forces forces:
    Not including porosity effects
Rigid-body motion of the floatingObject
    Centre of rotation: (0.5 0.4500811726 0.1)
    Orientation: (0.999990583738 0 0.00433963550613 0 1 0 -0.00433963550613 0 0.999990583738)
    Linear velocity: (0 0.00151118449237 0)
    Angular velocity: (0 -0.0561611533524 0)
Execution time for mesh.update() = 0.3 s
GAMGPCG:  Solving for pcorr, Initial residual = 1, Final residual = 4.05200496978e-06, No Iterations 8
time step continuity errors : sum local = 1.4947397546e-11, global = 1.29159108701e-11, cumulative = -0.000521528644592
smoothSolver:  Solving for alpha.water, Initial residual = 0.000331916047973, Final residual = 1.93319271768e-10, No Iterations 3
Phase-1 volume fraction = 0.561101833403  Min(alpha.water) = -1.85093376002e-12  Max(alpha.water) = 1.0008268334
Applying the previous iteration compression flux
MULES: Correcting alpha.water
MULES: Correcting alpha.water
MULES: Correcting alpha.water
Phase-1 volume fraction = 0.561101833403  Min(alpha.water) = -1.58400527042e-06  Max(alpha.water) = 1.0008268334
GAMG:  Solving for p_rgh, Initial residual = 0.00153465930776, Final residual = 7.20913479889e-06, No Iterations 2
time step continuity errors : sum local = 0.000157836546358, global = 5.81802316761e-06, cumulative = -0.000515710621424
PIMPLE: iteration 2
forces forces:
    Not including porosity effects
Rigid-body motion of the floatingObject
    Centre of rotation: (0.5 0.45008180953 0.1)
    Orientation: (0.999990294726 0 0.00440572971319 0 1 0 -0.00440572971319 0 0.999990294726)
    Linear velocity: (0 0.00160035469772 0)
    Angular velocity: (0 -0.0654144308055 0)
Execution time for mesh.update() = 0.29 s
GAMGPCG:  Solving for pcorr, Initial residual = 1, Final residual = 3.50350405604e-06, No Iterations 9
time step continuity errors : sum local = 5.69382733373e-10, global = -3.60160578698e-10, cumulative = -0.000515710981585
smoothSolver:  Solving for alpha.water, Initial residual = 0.00021577881384, Final residual = 1.5295061116e-10, No Iterations 3
Phase-1 volume fraction = 0.561101833173  Min(alpha.water) = -1.84625598537e-12  Max(alpha.water) = 1.00082673034
Applying the previous iteration compression flux
MULES: Correcting alpha.water
MULES: Correcting alpha.water
MULES: Correcting alpha.water
Phase-1 volume fraction = 0.561101833173  Min(alpha.water) = -1.18668870671e-06  Max(alpha.water) = 1.00082673034
GAMG:  Solving for p_rgh, Initial residual = 0.000104521303691, Final residual = 3.96519057982e-07, No Iterations 3
time step continuity errors : sum local = 8.66227305183e-06, global = -7.90112648561e-07, cumulative = -0.000516501094234
PIMPLE: iteration 3
forces forces:
    Not including porosity effects
Rigid-body motion of the floatingObject
    Centre of rotation: (0.5 0.45008203972 0.1)
    Orientation: (0.999990237194 0 0.00441876871072 0 1 0 -0.00441876871072 0 0.999990237194)
    Linear velocity: (0 0.00163258122121 0)
    Angular velocity: (0 -0.0672399082292 0)
Execution time for mesh.update() = 0.31 s
GAMGPCG:  Solving for pcorr, Initial residual = 1, Final residual = 6.39627406675e-06, No Iterations 6
time step continuity errors : sum local = 6.2508801871e-11, global = -3.79963441245e-11, cumulative = -0.00051650113223
smoothSolver:  Solving for alpha.water, Initial residual = 0.000222668787943, Final residual = 1.58045416696e-10, No Iterations 3
Phase-1 volume fraction = 0.561101833166  Min(alpha.water) = -1.84544058938e-12  Max(alpha.water) = 1.00082671075
Applying the previous iteration compression flux
MULES: Correcting alpha.water
MULES: Correcting alpha.water
MULES: Correcting alpha.water
Phase-1 volume fraction = 0.561101833166  Min(alpha.water) = -7.48901386591e-07  Max(alpha.water) = 1.00082671075
GAMGPCG:  Solving for p_rgh, Initial residual = 1.64982077029e-05, Final residual = 5.05577895217e-09, No Iterations 3
time step continuity errors : sum local = 1.10791680743e-07, global = -1.2522783452e-10, cumulative = -0.000516501257458
smoothSolver:  Solving for epsilon, Initial residual = 0.0360316178193, Final residual = 2.13792117983e-07, No Iterations 5
smoothSolver:  Solving for k, Initial residual = 0.13366376855, Final residual = 9.38985588618e-07, No Iterations 5
ExecutionTime = 101.79 s  ClockTime = 105 s

Courant Number mean: 0.0152084276136 max: 0.594460871728
Interface Courant Number mean: 0.000996573196829 max: 0.594460871728
deltaT = 0.0142857142857
Time = 0.171429

PIMPLE: iteration 1
forces forces:
    Not including porosity effects
Rigid-body motion of the floatingObject
    Centre of rotation: (0.5 0.450108834174 0.1)
    Orientation: (0.999984832109 0 0.0055077719081 0 1 0 -0.0055077719081 0 0.999984832109)
    Linear velocity: (0 0.002118642281 0)
    Angular velocity: (0 -0.085222424832 0)
Execution time for mesh.update() = 0.3 s
GAMGPCG:  Solving for pcorr, Initial residual = 1, Final residual = 6.264574423e-06, No Iterations 7
time step continuity errors : sum local = 7.55631279618e-11, global = -2.33567379742e-11, cumulative = -0.000516501280815
smoothSolver:  Solving for alpha.water, Initial residual = 0.000375738233945, Final residual = 2.58458187056e-10, No Iterations 3
Phase-1 volume fraction = 0.56110183342  Min(alpha.water) = -6.95705507437e-12  Max(alpha.water) = 1.00082504989
Applying the previous iteration compression flux
MULES: Correcting alpha.water
MULES: Correcting alpha.water
MULES: Correcting alpha.water
Phase-1 volume fraction = 0.56110183342  Min(alpha.water) = -7.66846681471e-07  Max(alpha.water) = 1.00082504989
GAMG:  Solving for p_rgh, Initial residual = 0.00154458498794, Final residual = 7.05099573278e-06, No Iterations 2
time step continuity errors : sum local = 0.000154609599099, global = 5.01729937738e-06, cumulative = -0.000511483981437
PIMPLE: iteration 2
forces forces:
    Not including porosity effects
Rigid-body motion of the floatingObject
    Centre of rotation: (0.5 0.450107716513 0.1)
    Orientation: (0.999985245116 0 0.0054322692691 0 1 0 -0.0054322692691 0 0.999985245116)
    Linear velocity: (0 0.00196216982519 0)
    Angular velocity: (0 -0.0746518972275 0)
Execution time for mesh.update() = 0.28 s
GAMGPCG:  Solving for pcorr, Initial residual = 1, Final residual = 1.59494896736e-06, No Iterations 7
time step continuity errors : sum local = 2.55066651389e-10, global = -3.39763184499e-11, cumulative = -0.000511484015413
smoothSolver:  Solving for alpha.water, Initial residual = 0.000250112487725, Final residual = 2.10595927862e-10, No Iterations 3
Phase-1 volume fraction = 0.561101833099  Min(alpha.water) = -6.94612079422e-12  Max(alpha.water) = 1.00082514405
Applying the previous iteration compression flux
MULES: Correcting alpha.water
MULES: Correcting alpha.water
MULES: Correcting alpha.water
Phase-1 volume fraction = 0.561101833099  Min(alpha.water) = -1.50045705196e-08  Max(alpha.water) = 1.00082514405
GAMG:  Solving for p_rgh, Initial residual = 0.00013994189015, Final residual = 1.21066354631e-06, No Iterations 2
time step continuity errors : sum local = 2.64059619611e-05, global = 3.55936295573e-06, cumulative = -0.000507924652458
PIMPLE: iteration 3
forces forces:
    Not including porosity effects
Rigid-body motion of the floatingObject
    Centre of rotation: (0.5 0.450107674353 0.1)
    Orientation: (0.999985279532 0 0.00542593021245 0 1 0 -0.00542593021245 0 0.999985279532)
    Linear velocity: (0 0.00195626742038 0)
    Angular velocity: (0 -0.0737644162174 0)
Execution time for mesh.update() = 0.29 s
GAMGPCG:  Solving for pcorr, Initial residual = 1, Final residual = 3.43004161393e-06, No Iterations 7
time step continuity errors : sum local = 9.24358790553e-11, global = 5.28469064637e-11, cumulative = -0.000507924599611
smoothSolver:  Solving for alpha.water, Initial residual = 0.000242358161272, Final residual = 2.17561836786e-10, No Iterations 3
Phase-1 volume fraction = 0.561101833086  Min(alpha.water) = -7.3512183346e-12  Max(alpha.water) = 1.00082515138
Applying the previous iteration compression flux
MULES: Correcting alpha.water
MULES: Correcting alpha.water
MULES: Correcting alpha.water
Phase-1 volume fraction = 0.561101833086  Min(alpha.water) = -4.96068302913e-09  Max(alpha.water) = 1.00082515138
GAMGPCG:  Solving for p_rgh, Initial residual = 1.84723967753e-05, Final residual = 6.1631574222e-09, No Iterations 3
time step continuity errors : sum local = 1.34486964995e-07, global = -6.12120927577e-09, cumulative = -0.00050793072082
smoothSolver:  Solving for epsilon, Initial residual = 0.0371057088582, Final residual = 2.33826942601e-07, No Iterations 5
smoothSolver:  Solving for k, Initial residual = 0.121345132388, Final residual = 9.0195534612e-07, No Iterations 5
ExecutionTime = 109.48 s  ClockTime = 113 s

Courant Number mean: 0.0164763335131 max: 0.626633001396
Interface Courant Number mean: 0.001084264969 max: 0.525575756631
deltaT = 0.0142857142857
Time = 0.185714

PIMPLE: iteration 1
forces forces:
    Not including porosity effects
Rigid-body motion of the floatingObject
    Centre of rotation: (0.5 0.450137547629 0.1)
    Orientation: (0.999979219487 0 0.00644675061789 0 1 0 -0.00644675061789 0 0.999979219487)
    Linear velocity: (0 0.00222599124417 0)
    Angular velocity: (0 -0.0691529649863 0)
Execution time for mesh.update() = 0.3 s
GAMGPCG:  Solving for pcorr, Initial residual = 1, Final residual = 5.62377074358e-06, No Iterations 8
time step continuity errors : sum local = 2.1416039893e-11, global = 1.6829717057e-11, cumulative = -0.00050793070399
smoothSolver:  Solving for alpha.water, Initial residual = 0.000382319761877, Final residual = 3.3010372929e-10, No Iterations 3
Phase-1 volume fraction = 0.56110183341  Min(alpha.water) = -1.23312275645e-12  Max(alpha.water) = 1.00082354115
Applying the previous iteration compression flux
MULES: Correcting alpha.water
MULES: Correcting alpha.water
MULES: Correcting alpha.water
Phase-1 volume fraction = 0.56110183341  Min(alpha.water) = -1.35321127166e-06  Max(alpha.water) = 1.00082354115
GAMG:  Solving for p_rgh, Initial residual = 0.0014771135006, Final residual = 5.58982724977e-06, No Iterations 2
time step continuity errors : sum local = 0.000121922308696, global = 8.03336332846e-07, cumulative = -0.000507127367658
PIMPLE: iteration 2
forces forces:
    Not including porosity effects
Rigid-body motion of the floatingObject
    Centre of rotation: (0.5 0.450139109947 0.1)
    Orientation: (0.999978805857 0 0.00651059417949 0 1 0 -0.00651059417949 0 0.999978805857)
    Linear velocity: (0 0.00244471572601 0)
    Angular velocity: (0 -0.0780912511988 0)
Execution time for mesh.update() = 0.32 s
GAMGPCG:  Solving for pcorr, Initial residual = 1, Final residual = 2.24432272854e-06, No Iterations 9
time step continuity errors : sum local = 2.83535743506e-10, global = -1.47259783388e-10, cumulative = -0.000507127514917
smoothSolver:  Solving for alpha.water, Initial residual = 0.000249151595758, Final residual = 2.54917186956e-10, No Iterations 3
Phase-1 volume fraction = 0.561101832987  Min(alpha.water) = -1.74066203278e-11  Max(alpha.water) = 1.00082343784
Applying the previous iteration compression flux
MULES: Correcting alpha.water
MULES: Correcting alpha.water
MULES: Correcting alpha.water
Phase-1 volume fraction = 0.561101832987  Min(alpha.water) = -2.25296441213e-07  Max(alpha.water) = 1.00082343784
GAMG:  Solving for p_rgh, Initial residual = 0.000109178257493, Final residual = 3.70736340526e-07, No Iterations 3
time step continuity errors : sum local = 8.06426522128e-06, global = -1.67414528019e-06, cumulative = -0.000508801660198
PIMPLE: iteration 3
forces forces:
    Not including porosity effects
Rigid-body motion of the floatingObject
    Centre of rotation: (0.5 0.450138459956 0.1)
    Orientation: (0.999978725454 0 0.00652293187007 0 1 0 -0.00652293187007 0 0.999978725454)
    Linear velocity: (0 0.00235371702785 0)
    Angular velocity: (0 -0.0798185645585 0)
Execution time for mesh.update() = 0.28 s
GAMGPCG:  Solving for pcorr, Initial residual = 1, Final residual = 7.04363155908e-06, No Iterations 6
time step continuity errors : sum local = 6.42962176367e-11, global = -2.07819238707e-11, cumulative = -0.000508801680979
smoothSolver:  Solving for alpha.water, Initial residual = 0.000257267182523, Final residual = 2.6736904183e-10, No Iterations 3
Phase-1 volume fraction = 0.561101832973  Min(alpha.water) = -1.22938743587e-12  Max(alpha.water) = 1.0008234188
Applying the previous iteration compression flux
MULES: Correcting alpha.water
MULES: Correcting alpha.water
MULES: Correcting alpha.water
Phase-1 volume fraction = 0.561101832973  Min(alpha.water) = -3.31073457204e-06  Max(alpha.water) = 1.0008234188
GAMGPCG:  Solving for p_rgh, Initial residual = 1.84274384221e-05, Final residual = 6.38217327322e-09, No Iterations 3
time step continuity errors : sum local = 1.39318790613e-07, global = 1.49924607044e-09, cumulative = -0.000508800181733
smoothSolver:  Solving for epsilon, Initial residual = 0.0377766529649, Final residual = 1.87700251866e-07, No Iterations 5
smoothSolver:  Solving for k, Initial residual = 0.110675690082, Final residual = 6.79370500173e-07, No Iterations 5
ExecutionTime = 117.47 s  ClockTime = 121 s

Courant Number mean: 0.0173327524084 max: 0.501830585776
Interface Courant Number mean: 0.00110114556066 max: 0.482735682538
deltaT = 0.0142857142857
Time = 0.2

PIMPLE: iteration 1
forces forces:
    Not including porosity effects
Rigid-body motion of the floatingObject
    Centre of rotation: (0.5 0.450176511331 0.1)
    Orientation: (0.999969693952 0 0.0077853181141 0 1 0 -0.0077853181141 0 0.999969693952)
    Linear velocity: (0 0.00297347542442 0)
    Angular velocity: (0 -0.0969200442749 0)
Execution time for mesh.update() = 0.3 s
GAMGPCG:  Solving for pcorr, Initial residual = 1, Final residual = 8.76924889967e-06, No Iterations 8
time step continuity errors : sum local = 1.0201008407e-10, global = -6.05359602465e-11, cumulative = -0.000508800242269
smoothSolver:  Solving for alpha.water, Initial residual = 0.000417503956432, Final residual = 4.17555988863e-10, No Iterations 3
Phase-1 volume fraction = 0.561101833381  Min(alpha.water) = -7.97675364816e-12  Max(alpha.water) = 1.00082143639
Applying the previous iteration compression flux
MULES: Correcting alpha.water
MULES: Correcting alpha.water
MULES: Correcting alpha.water
Phase-1 volume fraction = 0.561101833381  Min(alpha.water) = -3.76919857485e-07  Max(alpha.water) = 1.00082143639
GAMG:  Solving for p_rgh, Initial residual = 0.00166676757441, Final residual = 5.9655748064e-06, No Iterations 2
time step continuity errors : sum local = 0.000130277420472, global = 1.33047940874e-06, cumulative = -0.000507469762861
PIMPLE: iteration 2
forces forces:
    Not including porosity effects
Rigid-body motion of the floatingObject
    Centre of rotation: (0.5 0.450175579128 0.1)
    Orientation: (0.999970269013 0 0.00771110169587 0 1 0 -0.00771110169587 0 0.999970269013)
    Linear velocity: (0 0.00284296704978 0)
    Angular velocity: (0 -0.0865294338172 0)
Execution time for mesh.update() = 0.28 s
GAMGPCG:  Solving for pcorr, Initial residual = 1, Final residual = 9.51658493512e-06, No Iterations 6
time step continuity errors : sum local = 1.29151888634e-09, global = -6.61656354999e-10, cumulative = -0.000507470424517
smoothSolver:  Solving for alpha.water, Initial residual = 0.000282414689229, Final residual = 3.12353984186e-10, No Iterations 3
Phase-1 volume fraction = 0.561101832852  Min(alpha.water) = -8.12067303364e-12  Max(alpha.water) = 1.00082152696
Applying the previous iteration compression flux
MULES: Correcting alpha.water
MULES: Correcting alpha.water
MULES: Correcting alpha.water
Phase-1 volume fraction = 0.561101832852  Min(alpha.water) = -1.67987960486e-09  Max(alpha.water) = 1.00082152696
GAMG:  Solving for p_rgh, Initial residual = 0.000143727797021, Final residual = 9.13529808884e-07, No Iterations 2
time step continuity errors : sum local = 1.98523050564e-05, global = -2.47886531814e-07, cumulative = -0.000507718311049
PIMPLE: iteration 3
forces forces:
    Not including porosity effects
Rigid-body motion of the floatingObject
    Centre of rotation: (0.5 0.450175126467 0.1)
    Orientation: (0.999970303991 0 0.00770656449883 0 1 0 -0.00770656449883 0 0.999970303991)
    Linear velocity: (0 0.00277959449925 0)
    Angular velocity: (0 -0.0858942073568 0)
Execution time for mesh.update() = 0.3 s
GAMGPCG:  Solving for pcorr, Initial residual = 1, Final residual = 1.30086903572e-06, No Iterations 7
time step continuity errors : sum local = 2.63520112159e-11, global = 3.67693396477e-12, cumulative = -0.000507718307372
smoothSolver:  Solving for alpha.water, Initial residual = 0.000275088342063, Final residual = 3.23524329152e-10, No Iterations 3
Phase-1 volume fraction = 0.56110183284  Min(alpha.water) = -8.26317667493e-12  Max(alpha.water) = 1.00082153149
Applying the previous iteration compression flux
MULES: Correcting alpha.water
MULES: Correcting alpha.water
MULES: Correcting alpha.water
Phase-1 volume fraction = 0.56110183284  Min(alpha.water) = -1.10347470154e-09  Max(alpha.water) = 1.00082153149
GAMGPCG:  Solving for p_rgh, Initial residual = 1.74961167869e-05, Final residual = 5.99194442532e-09, No Iterations 3
time step continuity errors : sum local = 1.30260714417e-07, global = -1.23423062212e-11, cumulative = -0.000507718319714
smoothSolver:  Solving for epsilon, Initial residual = 0.0379986300423, Final residual = 9.31794823565e-07, No Iterations 4
smoothSolver:  Solving for k, Initial residual = 0.101268105698, Final residual = 4.57532273768e-07, No Iterations 5
ExecutionTime = 133.07 s  ClockTime = 136 s

Courant Number mean: 0.018396118043 max: 0.508901512574
Interface Courant Number mean: 0.00121227225245 max: 0.508901512574
deltaT = 0.0166666666667
Time = 0.216667

PIMPLE: iteration 1
forces forces:
    Not including porosity effects
Rigid-body motion of the floatingObject
    Centre of rotation: (0.5 0.450224590178 0.1)
    Orientation: (0.999958650408 0 0.00909381517847 0 1 0 -0.00909381517847 0 0.999958650408)
    Linear velocity: (0 0.00315605079462 0)
    Angular velocity: (0 -0.0805817611935 0)
Execution time for mesh.update() = 0.32 s
GAMGPCG:  Solving for pcorr, Initial residual = 1, Final residual = 7.93455555416e-06, No Iterations 8
time step continuity errors : sum local = 4.10426699112e-11, global = 2.60950210611e-11, cumulative = -0.000507718293619
smoothSolver:  Solving for alpha.water, Initial residual = 0.000482604899999, Final residual = 1.2377815422e-09, No Iterations 3
Phase-1 volume fraction = 0.56110183405  Min(alpha.water) = -8.03016777754e-12  Max(alpha.water) = 1.0008192953
Applying the previous iteration compression flux
MULES: Correcting alpha.water
MULES: Correcting alpha.water
MULES: Correcting alpha.water
Phase-1 volume fraction = 0.56110183405  Min(alpha.water) = -5.24058363131e-06  Max(alpha.water) = 1.0008192953
GAMG:  Solving for p_rgh, Initial residual = 0.00183646229319, Final residual = 7.34655784712e-06, No Iterations 2
time step continuity errors : sum local = 0.000212777705884, global = 2.75464834367e-07, cumulative = -0.000507442828785
PIMPLE: iteration 2
forces forces:
    Not including porosity effects
Rigid-body motion of the floatingObject
    Centre of rotation: (0.5 0.450229093073 0.1)
    Orientation: (0.999957919472 0 0.00917383702906 0 1 0 -0.00917383702906 0 0.999957919472)
    Linear velocity: (0 0.00369639820597 0)
    Angular velocity: (0 -0.0901847838491 0)
Execution time for mesh.update() = 0.29 s
GAMGPCG:  Solving for pcorr, Initial residual = 1, Final residual = 4.70772966957e-06, No Iterations 10
time step continuity errors : sum local = 1.02692458792e-09, global = 3.38505723593e-10, cumulative = -0.000507442490279
smoothSolver:  Solving for alpha.water, Initial residual = 0.00032004839696, Final residual = 9.40224101502e-10, No Iterations 3
Phase-1 volume fraction = 0.561101832447  Min(alpha.water) = -2.38642624239e-11  Max(alpha.water) = 1.00081916054
Applying the previous iteration compression flux
MULES: Correcting alpha.water
MULES: Correcting alpha.water
MULES: Correcting alpha.water
Phase-1 volume fraction = 0.561101832447  Min(alpha.water) = -7.61113250958e-08  Max(alpha.water) = 1.00081916054
GAMG:  Solving for p_rgh, Initial residual = 0.000149418744201, Final residual = 1.0843729716e-06, No Iterations 2
time step continuity errors : sum local = 3.13301538554e-05, global = -1.65622629769e-06, cumulative = -0.000509098716577
PIMPLE: iteration 3
forces forces:
    Not including porosity effects
Rigid-body motion of the floatingObject
    Centre of rotation: (0.5 0.450226265846 0.1)
    Orientation: (0.999957775625 0 0.00918950312563 0 1 0 -0.00918950312563 0 0.999957775625)
    Linear velocity: (0 0.00335713089668 0)
    Angular velocity: (0 -0.0920647946846 0)
Execution time for mesh.update() = 0.3 s
GAMGPCG:  Solving for pcorr, Initial residual = 1, Final residual = 2.74083295378e-06, No Iterations 7
time step continuity errors : sum local = 8.90553216843e-11, global = -3.66239861773e-11, cumulative = -0.000509098753201
smoothSolver:  Solving for alpha.water, Initial residual = 0.000332584296339, Final residual = 9.67014906039e-10, No Iterations 3
Phase-1 volume fraction = 0.56110183241  Min(alpha.water) = -7.8823301911e-12  Max(alpha.water) = 1.00081913529
Applying the previous iteration compression flux
MULES: Correcting alpha.water
MULES: Correcting alpha.water
MULES: Correcting alpha.water
Phase-1 volume fraction = 0.56110183241  Min(alpha.water) = -1.86884650662e-07  Max(alpha.water) = 1.00081913529
GAMGPCG:  Solving for p_rgh, Initial residual = 2.36492998853e-05, Final residual = 1.25417697792e-09, No Iterations 4
time step continuity errors : sum local = 3.62895708331e-08, global = 1.28720698637e-09, cumulative = -0.000509097465994
smoothSolver:  Solving for epsilon, Initial residual = 0.0443088473816, Final residual = 2.33591283966e-07, No Iterations 5
smoothSolver:  Solving for k, Initial residual = 0.109297148503, Final residual = 7.40512696466e-07, No Iterations 5
ExecutionTime = 141.5 s  ClockTime = 145 s

Courant Number mean: 0.0226778734049 max: 0.55244182039
Interface Courant Number mean: 0.00146052416863 max: 0.526847791352
deltaT = 0.0166666666667
Time = 0.233333

PIMPLE: iteration 1
forces forces:
    Not including porosity effects
Rigid-body motion of the floatingObject
    Centre of rotation: (0.5 0.450289303995 0.1)
    Orientation: (0.999940841612 0 0.010877190673 0 1 0 -0.010877190673 0 0.999940841612)
    Linear velocity: (0 0.00420744703811 0)
    Angular velocity: (0 -0.110467929594 0)
Execution time for mesh.update() = 0.31 s
GAMGPCG:  Solving for pcorr, Initial residual = 1, Final residual = 9.24588475872e-06, No Iterations 8
time step continuity errors : sum local = 1.37088308552e-10, global = -9.74801002165e-11, cumulative = -0.000509097563474
smoothSolver:  Solving for alpha.water, Initial residual = 0.000521603165393, Final residual = 1.44116764063e-09, No Iterations 3
Phase-1 volume fraction = 0.561101833822  Min(alpha.water) = -1.22444179687e-11  Max(alpha.water) = 1.00081643456
Applying the previous iteration compression flux
MULES: Correcting alpha.water
MULES: Correcting alpha.water
MULES: Correcting alpha.water
Phase-1 volume fraction = 0.561101833822  Min(alpha.water) = -2.66735341643e-06  Max(alpha.water) = 1.00081643456
GAMG:  Solving for p_rgh, Initial residual = 0.00198843655322, Final residual = 8.40790886134e-06, No Iterations 2
time step continuity errors : sum local = 0.000243841667186, global = 3.78345648702e-06, cumulative = -0.000505314106987
PIMPLE: iteration 2
forces forces:
    Not including porosity effects
Rigid-body motion of the floatingObject
    Centre of rotation: (0.5 0.450289075456 0.1)
    Orientation: (0.999941885388 0 0.0107808092074 0 1 0 -0.0107808092074 0 0.999941885388)
    Linear velocity: (0 0.00418002233024 0)
    Angular velocity: (0 -0.0989014755148 0)
Execution time for mesh.update() = 0.29 s
GAMGPCG:  Solving for pcorr, Initial residual = 1, Final residual = 2.85469834172e-06, No Iterations 7
time step continuity errors : sum local = 7.16762855069e-10, global = -3.27133368929e-10, cumulative = -0.00050531443412
smoothSolver:  Solving for alpha.water, Initial residual = 0.000363132319841, Final residual = 1.04616713278e-09, No Iterations 3
Phase-1 volume fraction = 0.561101831899  Min(alpha.water) = -1.19477241012e-11  Max(alpha.water) = 1.00081654957
Applying the previous iteration compression flux
MULES: Correcting alpha.water
MULES: Correcting alpha.water
MULES: Correcting alpha.water
Phase-1 volume fraction = 0.561101831899  Min(alpha.water) = -2.32464516863e-06  Max(alpha.water) = 1.00081654957
GAMG:  Solving for p_rgh, Initial residual = 0.000190109796051, Final residual = 1.3485666301e-06, No Iterations 2
time step continuity errors : sum local = 3.89383276049e-05, global = 2.08723775656e-06, cumulative = -0.000503227196364
PIMPLE: iteration 3
forces forces:
    Not including porosity effects
Rigid-body motion of the floatingObject
    Centre of rotation: (0.5 0.45028795383 0.1)
    Orientation: (0.999941929779 0 0.0107766910867 0 1 0 -0.0107766910867 0 0.999941929779)
    Linear velocity: (0 0.00404542721457 0)
    Angular velocity: (0 -0.098407272311 0)
Execution time for mesh.update() = 0.29 s
GAMGPCG:  Solving for pcorr, Initial residual = 1, Final residual = 4.26490324595e-06, No Iterations 7
time step continuity errors : sum local = 1.67784283712e-10, global = 4.90378805063e-11, cumulative = -0.000503227147326
smoothSolver:  Solving for alpha.water, Initial residual = 0.000354792266986, Final residual = 1.07602446082e-09, No Iterations 3
Phase-1 volume fraction = 0.56110183186  Min(alpha.water) = -1.19954099222e-11  Max(alpha.water) = 1.00081655207
Applying the previous iteration compression flux
MULES: Correcting alpha.water
MULES: Correcting alpha.water
MULES: Correcting alpha.water
Phase-1 volume fraction = 0.56110183186  Min(alpha.water) = -8.01433374378e-07  Max(alpha.water) = 1.00081655207
GAMGPCG:  Solving for p_rgh, Initial residual = 2.31011480702e-05, Final residual = 7.58345247659e-09, No Iterations 3
time step continuity errors : sum local = 2.1898532653e-07, global = -3.91559500014e-09, cumulative = -0.000503231062921
smoothSolver:  Solving for epsilon, Initial residual = 0.0451074909352, Final residual = 2.62343974146e-07, No Iterations 5
smoothSolver:  Solving for k, Initial residual = 0.100746970051, Final residual = 6.62815648652e-07, No Iterations 5
ExecutionTime = 149.49 s  ClockTime = 153 s

Courant Number mean: 0.0241498682757 max: 0.583130136965
Interface Courant Number mean: 0.001528495196 max: 0.524615480519
deltaT = 0.0166666666667
Time = 0.25

PIMPLE: iteration 1
forces forces:
    Not including porosity effects
Rigid-body motion of the floatingObject
    Centre of rotation: (0.5 0.450359971425 0.1)
    Orientation: (0.99992342261 0 0.0123753350063 0 1 0 -0.0123753350063 0 0.99992342261)
    Linear velocity: (0 0.00459668424346 0)
    Angular velocity: (0 -0.0934428732673 0)
Execution time for mesh.update() = 0.3 s
GAMGPCG:  Solving for pcorr, Initial residual = 1, Final residual = 2.08949273884e-06, No Iterations 8
[...]
Applying the previous iteration compression flux
MULES: Correcting alpha.water
MULES: Correcting alpha.water
MULES: Correcting alpha.water
Phase-1 volume fraction = 0.561101824889  Min(alpha.water) = -6.58325337539e-05  Max(alpha.water) = 1.00063516673
GAMG:  Solving for p_rgh, Initial residual = 0.000105535087139, Final residual = 4.50429513169e-07, No Iterations 3
time step continuity errors : sum local = 3.50927046933e-06, global = 5.98955241371e-07, cumulative = -0.000245250926898
PIMPLE: iteration 3
forces forces:
    Not including porosity effects
Rigid-body motion of the floatingObject
    Centre of rotation: (0.5 0.476512442499 0.1)
    Orientation: (0.993597153169 0 0.112980959526 0 1 0 -0.112980959526 0 0.993597153169)
    Linear velocity: (0 0.0621838708089 0)
    Angular velocity: (0 -0.120895968986 0)
Execution time for mesh.update() = 0.29 s
GAMGPCG:  Solving for pcorr, Initial residual = 1, Final residual = 1.80690428876e-06, No Iterations 7
time step continuity errors : sum local = 6.42164694285e-12, global = 8.21936647204e-13, cumulative = -0.000245250926076
smoothSolver:  Solving for alpha.water, Initial residual = 0.000257450969467, Final residual = 9.42036982528e-10, No Iterations 2
Phase-1 volume fraction = 0.561101824862  Min(alpha.water) = -4.7078013961e-07  Max(alpha.water) = 1.00063516389
Applying the previous iteration compression flux
MULES: Correcting alpha.water
MULES: Correcting alpha.water
MULES: Correcting alpha.water
Phase-1 volume fraction = 0.561101824862  Min(alpha.water) = -1.73528690059e-05  Max(alpha.water) = 1.00063516389
GAMGPCG:  Solving for p_rgh, Initial residual = 4.81626259229e-05, Final residual = 5.92502074581e-09, No Iterations 3
time step continuity errors : sum local = 4.61973090782e-08, global = -3.3874814628e-10, cumulative = -0.000245251264824
smoothSolver:  Solving for epsilon, Initial residual = 0.0214630913363, Final residual = 6.12399983594e-07, No Iterations 7
smoothSolver:  Solving for k, Initial residual = 0.0151684541963, Final residual = 3.6272077169e-07, No Iterations 7
ExecutionTime = 594.86 s  ClockTime = 598 s

Courant Number mean: 0.0189156633389 max: 0.701807848877
Interface Courant Number mean: 0.00154575102628 max: 0.32880047597
deltaT = 0.00846560846561
Time = 0.974603

PIMPLE: iteration 1
forces forces:
    Not including porosity effects
Rigid-body motion of the floatingObject
    Centre of rotation: (0.5 0.477034894426 0.1)
    Orientation: (0.993481480443 0 0.113993631473 0 1 0 -0.113993631473 0 0.993481480443)
    Linear velocity: (0 0.0612453969964 0)
    Angular velocity: (0 -0.119903486697 0)
Execution time for mesh.update() = 0.3 s
GAMGPCG:  Solving for pcorr, Initial residual = 1, Final residual = 1.77419985048e-06, No Iterations 7
time step continuity errors : sum local = 1.10267906593e-11, global = -2.05719046937e-12, cumulative = -0.000245251266881
smoothSolver:  Solving for alpha.water, Initial residual = 0.000321667412228, Final residual = 1.04533075511e-09, No Iterations 2
Phase-1 volume fraction = 0.561101824124  Min(alpha.water) = -3.33552173442e-07  Max(alpha.water) = 1.0006337052
Applying the previous iteration compression flux
MULES: Correcting alpha.water
MULES: Correcting alpha.water
MULES: Correcting alpha.water
Phase-1 volume fraction = 0.561101824124  Min(alpha.water) = -3.5755313122e-06  Max(alpha.water) = 1.0006337052
GAMG:  Solving for p_rgh, Initial residual = 0.00173592515929, Final residual = 6.69448296859e-06, No Iterations 2
time step continuity errors : sum local = 5.22362365773e-05, global = 9.32709124211e-07, cumulative = -0.000244318557757
PIMPLE: iteration 2
forces forces:
    Not including porosity effects
Rigid-body motion of the floatingObject
    Centre of rotation: (0.5 0.477034179914 0.1)
    Orientation: (0.993481535355 0 0.113993152903 0 1 0 -0.113993152903 0 0.993481535355)
    Linear velocity: (0 0.0610765935558 0)
    Angular velocity: (0 -0.119789682765 0)
Execution time for mesh.update() = 0.3 s
GAMGPCG:  Solving for pcorr, Initial residual = 1, Final residual = 1.02546821177e-06, No Iterations 8
time step continuity errors : sum local = 5.35947077833e-11, global = -1.26638567955e-11, cumulative = -0.000244318570421
smoothSolver:  Solving for alpha.water, Initial residual = 0.000258268321353, Final residual = 8.18547352235e-10, No Iterations 2
Phase-1 volume fraction = 0.5611018249  Min(alpha.water) = -7.83965532586e-07  Max(alpha.water) = 1.00063369132
Applying the previous iteration compression flux
MULES: Correcting alpha.water
MULES: Correcting alpha.water
MULES: Correcting alpha.water
Phase-1 volume fraction = 0.5611018249  Min(alpha.water) = -0.000126454416632  Max(alpha.water) = 1.00063369132
GAMG:  Solving for p_rgh, Initial residual = 0.000107686884113, Final residual = 4.34265721945e-07, No Iterations 3
time step continuity errors : sum local = 3.38145234111e-06, global = 5.44636773058e-07, cumulative = -0.000243773933648
PIMPLE: iteration 3
forces forces:
    Not including porosity effects
Rigid-body motion of the floatingObject
    Centre of rotation: (0.5 0.477034780197 0.1)
    Orientation: (0.993481503223 0 0.11399343294 0 1 0 -0.11399343294 0 0.993481503223)
    Linear velocity: (0 0.061218410508 0)
    Angular velocity: (0 -0.119856275597 0)
Execution time for mesh.update() = 0.28 s
GAMGPCG:  Solving for pcorr, Initial residual = 1, Final residual = 1.1750848212e-06, No Iterations 7
time step continuity errors : sum local = 4.02511173945e-12, global = 8.97439122095e-14, cumulative = -0.000243773933558
smoothSolver:  Solving for alpha.water, Initial residual = 0.000258016622743, Final residual = 8.24941079304e-10, No Iterations 2
Phase-1 volume fraction = 0.561101824879  Min(alpha.water) = -3.34474773011e-07  Max(alpha.water) = 1.00063368783
Applying the previous iteration compression flux
MULES: Correcting alpha.water
MULES: Correcting alpha.water
MULES: Correcting alpha.water
Phase-1 volume fraction = 0.561101824879  Min(alpha.water) = -5.58415649468e-06  Max(alpha.water) = 1.00063368783
GAMGPCG:  Solving for p_rgh, Initial residual = 5.09532090298e-05, Final residual = 6.24094593216e-09, No Iterations 3
time step continuity errors : sum local = 4.86409840909e-08, global = -9.30425087393e-10, cumulative = -0.000243774863983
smoothSolver:  Solving for epsilon, Initial residual = 0.0211146443383, Final residual = 5.46757117577e-07, No Iterations 7
smoothSolver:  Solving for k, Initial residual = 0.014900809966, Final residual = 8.99417347774e-07, No Iterations 6
ExecutionTime = 603.14 s  ClockTime = 606 s

Courant Number mean: 0.0189350069264 max: 0.750158064885
Interface Courant Number mean: 0.00154472496895 max: 0.324953818599
deltaT = 0.00846560846561
Time = 0.983069

PIMPLE: iteration 1
forces forces:
    Not including porosity effects
Rigid-body motion of the floatingObject
    Centre of rotation: (0.5 0.477548893146 0.1)
    Orientation: (0.99336581653 0 0.114997193664 0 1 0 -0.114997193664 0 0.99336581653)
    Linear velocity: (0 0.0602407735574 0)
    Angular velocity: (0 -0.118852002173 0)
Execution time for mesh.update() = 0.31 s
GAMGPCG:  Solving for pcorr, Initial residual = 1, Final residual = 6.70304891422e-06, No Iterations 6
time step continuity errors : sum local = 4.18297657479e-11, global = -2.19927128522e-11, cumulative = -0.000243774885976
smoothSolver:  Solving for alpha.water, Initial residual = 0.00032245231015, Final residual = 9.42702358557e-10, No Iterations 2
Phase-1 volume fraction = 0.561101824219  Min(alpha.water) = -3.0367201496e-07  Max(alpha.water) = 1.00063205758
Applying the previous iteration compression flux
MULES: Correcting alpha.water
MULES: Correcting alpha.water
MULES: Correcting alpha.water
Phase-1 volume fraction = 0.561101824219  Min(alpha.water) = -3.92900117811e-06  Max(alpha.water) = 1.00063205758
GAMG:  Solving for p_rgh, Initial residual = 0.00175070144971, Final residual = 6.58498676749e-06, No Iterations 2
time step continuity errors : sum local = 5.13934103588e-05, global = 1.26074990217e-06, cumulative = -0.000242514136074
PIMPLE: iteration 2
forces forces:
    Not including porosity effects
Rigid-body motion of the floatingObject
    Centre of rotation: (0.5 0.477547786678 0.1)
    Orientation: (0.993365871441 0 0.114996719332 0 1 0 -0.114996719332 0 0.993365871441)
    Linear velocity: (0 0.0599793705931 0)
    Angular velocity: (0 -0.1187391928 0)
Execution time for mesh.update() = 0.31 s
GAMGPCG:  Solving for pcorr, Initial residual = 1, Final residual = 5.40225704666e-06, No Iterations 7
time step continuity errors : sum local = 2.77853845646e-10, global = 4.48417433424e-11, cumulative = -0.000242514091232
smoothSolver:  Solving for alpha.water, Initial residual = 0.000259154280862, Final residual = 7.33469118681e-10, No Iterations 2
Phase-1 volume fraction = 0.561101824826  Min(alpha.water) = -3.0479387436e-07  Max(alpha.water) = 1.00063204175
Applying the previous iteration compression flux
MULES: Correcting alpha.water
MULES: Correcting alpha.water
MULES: Correcting alpha.water
Phase-1 volume fraction = 0.561101824826  Min(alpha.water) = -3.74368565197e-05  Max(alpha.water) = 1.00063204175
GAMG:  Solving for p_rgh, Initial residual = 0.000108066638031, Final residual = 4.23063341265e-07, No Iterations 3
time step continuity errors : sum local = 3.29604313496e-06, global = 7.15749107569e-07, cumulative = -0.000241798342124
PIMPLE: iteration 3
forces forces:
    Not including porosity effects
Rigid-body motion of the floatingObject
    Centre of rotation: (0.5 0.477548398884 0.1)
    Orientation: (0.993365836286 0 0.114997023007 0 1 0 -0.114997023007 0 0.993365836286)
    Linear velocity: (0 0.0601240042126 0)
    Angular velocity: (0 -0.118811415195 0)
Execution time for mesh.update() = 0.3 s
GAMGPCG:  Solving for pcorr, Initial residual = 1, Final residual = 1.40926005373e-06, No Iterations 7
time step continuity errors : sum local = 4.7132732647e-12, global = 1.16913859735e-12, cumulative = -0.000241798340955
smoothSolver:  Solving for alpha.water, Initial residual = 0.000258872069918, Final residual = 7.2309415125e-10, No Iterations 2
Phase-1 volume fraction = 0.561101824826  Min(alpha.water) = -3.01920131348e-07  Max(alpha.water) = 1.00063203736
Applying the previous iteration compression flux
MULES: Correcting alpha.water
MULES: Correcting alpha.water
MULES: Correcting alpha.water
Phase-1 volume fraction = 0.561101824826  Min(alpha.water) = -3.08139516083e-06  Max(alpha.water) = 1.00063203736
GAMGPCG:  Solving for p_rgh, Initial residual = 5.26306730581e-05, Final residual = 4.78669967818e-09, No Iterations 3
time step continuity errors : sum local = 3.73227622467e-08, global = -1.97525231698e-10, cumulative = -0.00024179853848
smoothSolver:  Solving for epsilon, Initial residual = 0.0209353476244, Final residual = 5.4764497225e-07, No Iterations 7
smoothSolver:  Solving for k, Initial residual = 0.0145639228812, Final residual = 8.86190912782e-07, No Iterations 6
ExecutionTime = 611.86 s  ClockTime = 615 s

Courant Number mean: 0.0189557945815 max: 0.860908435551
Interface Courant Number mean: 0.00154494014084 max: 0.345779543693
deltaT = 0.00846560846561
Time = 0.991534

PIMPLE: iteration 1
forces forces:
    Not including porosity effects
Rigid-body motion of the floatingObject
    Centre of rotation: (0.5 0.478052311259 0.1)
    Orientation: (0.993250161487 0 0.115991882074 0 1 0 -0.115991882074 0 0.993250161487)
    Linear velocity: (0 0.0589252944097 0)
    Angular velocity: (0 -0.117807473512 0)
Execution time for mesh.update() = 0.32 s
GAMGPCG:  Solving for pcorr, Initial residual = 1, Final residual = 9.48569416058e-06, No Iterations 6
time step continuity errors : sum local = 5.97705206313e-11, global = -3.43561598772e-11, cumulative = -0.000241798572837
smoothSolver:  Solving for alpha.water, Initial residual = 0.00032316821608, Final residual = 8.72303796556e-10, No Iterations 2
Phase-1 volume fraction = 0.561101824218  Min(alpha.water) = -1.63825440677e-06  Max(alpha.water) = 1.00063021994
Applying the previous iteration compression flux
MULES: Correcting alpha.water
MULES: Correcting alpha.water
MULES: Correcting alpha.water
Phase-1 volume fraction = 0.561101824218  Min(alpha.water) = -5.88043964268e-06  Max(alpha.water) = 1.00063021994
GAMG:  Solving for p_rgh, Initial residual = 0.00176458464479, Final residual = 6.84091029849e-06, No Iterations 2
time step continuity errors : sum local = 5.33638680049e-05, global = 7.47860303822e-07, cumulative = -0.000241050712533
PIMPLE: iteration 2
forces forces:
    Not including porosity effects
Rigid-body motion of the floatingObject
    Centre of rotation: (0.5 0.478051632849 0.1)
    Orientation: (0.993250211385 0 0.115991454784 0 1 0 -0.115991454784 0 0.993250211385)
    Linear velocity: (0 0.0587650201062 0)
    Angular velocity: (0 -0.117705840225 0)
Execution time for mesh.update() = 0.34 s
GAMGPCG:  Solving for pcorr, Initial residual = 1, Final residual = 3.36731636789e-06, No Iterations 7
time step continuity errors : sum local = 1.79766410875e-10, global = 3.70683067543e-11, cumulative = -0.000241050675464
smoothSolver:  Solving for alpha.water, Initial residual = 0.000258829614783, Final residual = 6.71349401829e-10, No Iterations 2
Phase-1 volume fraction = 0.561101824701  Min(alpha.water) = -1.59071953938e-06  Max(alpha.water) = 1.0006302023
Applying the previous iteration compression flux
MULES: Correcting alpha.water
MULES: Correcting alpha.water
MULES: Correcting alpha.water
Phase-1 volume fraction = 0.561101824701  Min(alpha.water) = -4.36875882085e-05  Max(alpha.water) = 1.0006302023
GAMG:  Solving for p_rgh, Initial residual = 0.000111880794128, Final residual = 4.20289721851e-07, No Iterations 3
time step continuity errors : sum local = 3.27310396542e-06, global = 6.3146691182e-07, cumulative = -0.000240419208553
PIMPLE: iteration 3
forces forces:
    Not including porosity effects
Rigid-body motion of the floatingObject
    Centre of rotation: (0.5 0.478052167117 0.1)
    Orientation: (0.993250179376 0 0.115991728885 0 1 0 -0.115991728885 0 0.993250179376)
    Linear velocity: (0 0.0588912408942 0)
    Angular velocity: (0 -0.117771036669 0)
Execution time for mesh.update() = 0.29 s
GAMGPCG:  Solving for pcorr, Initial residual = 1, Final residual = 1.35477225681e-06, No Iterations 7
time step continuity errors : sum local = 4.50001889145e-12, global = 7.98454772715e-13, cumulative = -0.000240419207754
smoothSolver:  Solving for alpha.water, Initial residual = 0.000258812027159, Final residual = 6.48973018067e-10, No Iterations 2
Phase-1 volume fraction = 0.561101824717  Min(alpha.water) = -2.31812705641e-07  Max(alpha.water) = 1.00063019649
Applying the previous iteration compression flux
MULES: Correcting alpha.water
MULES: Correcting alpha.water
MULES: Correcting alpha.water
Phase-1 volume fraction = 0.561101824717  Min(alpha.water) = -4.69447737571e-06  Max(alpha.water) = 1.00063019649
GAMGPCG:  Solving for p_rgh, Initial residual = 5.67315341497e-05, Final residual = 4.5315004371e-09, No Iterations 3
time step continuity errors : sum local = 3.53115282398e-08, global = -9.02923090759e-10, cumulative = -0.000240420110677
smoothSolver:  Solving for epsilon, Initial residual = 0.020589545446, Final residual = 6.13780911338e-07, No Iterations 7
smoothSolver:  Solving for k, Initial residual = 0.0142650515855, Final residual = 9.90280959397e-07, No Iterations 6
ExecutionTime = 621.24 s  ClockTime = 625 s

Courant Number mean: 0.0189740067696 max: 0.982877803279
Interface Courant Number mean: 0.00153593687279 max: 0.360120656188
deltaT = 0.00846560846561
Time = 1

PIMPLE: iteration 1
forces forces:
    Not including porosity effects
Rigid-body motion of the floatingObject
    Centre of rotation: (0.5 0.47854539896 0.1)
    Orientation: (0.993134535649 0 0.116977750453 0 1 0 -0.116977750453 0 0.993134535649)
    Linear velocity: (0 0.0576347818553 0)
    Angular velocity: (0 -0.116773233123 0)
Execution time for mesh.update() = 0.31 s
GAMGPCG:  Solving for pcorr, Initial residual = 1, Final residual = 8.29564684717e-06, No Iterations 6
time step continuity errors : sum local = 5.27144921191e-11, global = -3.14590184659e-11, cumulative = -0.000240420142136
smoothSolver:  Solving for alpha.water, Initial residual = 0.000324066501765, Final residual = 8.18417750793e-10, No Iterations 2
Phase-1 volume fraction = 0.561101824154  Min(alpha.water) = -5.98596996286e-07  Max(alpha.water) = 1.00062817837
Applying the previous iteration compression flux
MULES: Correcting alpha.water
MULES: Correcting alpha.water
MULES: Correcting alpha.water
Phase-1 volume fraction = 0.561101824154  Min(alpha.water) = -8.31263788241e-06  Max(alpha.water) = 1.00062817837
GAMG:  Solving for p_rgh, Initial residual = 0.00177221068844, Final residual = 6.96031525872e-06, No Iterations 2
time step continuity errors : sum local = 5.43103292588e-05, global = 6.3696269038e-07, cumulative = -0.000239783179446
PIMPLE: iteration 2
forces forces:
    Not including porosity effects
Rigid-body motion of the floatingObject
    Centre of rotation: (0.5 0.478544441975 0.1)
    Orientation: (0.993134592842 0 0.11697726489 0 1 0 -0.11697726489 0 0.993134592842)
    Linear velocity: (0 0.0574086943312 0)
    Angular velocity: (0 -0.116657725927 0)
Execution time for mesh.update() = 0.29 s
GAMGPCG:  Solving for pcorr, Initial residual = 1, Final residual = 8.02322890773e-06, No Iterations 7
time step continuity errors : sum local = 4.35964604022e-10, global = 7.39625562792e-11, cumulative = -0.000239783105483
smoothSolver:  Solving for alpha.water, Initial residual = 0.000258421699064, Final residual = 6.31092059169e-10, No Iterations 2
Phase-1 volume fraction = 0.561101824529  Min(alpha.water) = -6.25035279568e-07  Max(alpha.water) = 1.00062815899
Applying the previous iteration compression flux
MULES: Correcting alpha.water
MULES: Correcting alpha.water
MULES: Correcting alpha.water
Phase-1 volume fraction = 0.561101824529  Min(alpha.water) = -8.97312793156e-05  Max(alpha.water) = 1.00062815899
GAMG:  Solving for p_rgh, Initial residual = 0.000116216775768, Final residual = 3.75735303718e-07, No Iterations 3
time step continuity errors : sum local = 2.92636185083e-06, global = 4.61374789375e-07, cumulative = -0.000239321730694
PIMPLE: iteration 3
forces forces:
    Not including porosity effects
Rigid-body motion of the floatingObject
    Centre of rotation: (0.5 0.478544917571 0.1)
    Orientation: (0.993134559841 0 0.116977545065 0 1 0 -0.116977545065 0 0.993134559841)
    Linear velocity: (0 0.0575210537168 0)
    Angular velocity: (0 -0.116724374807 0)
Execution time for mesh.update() = 0.3 s
GAMGPCG:  Solving for pcorr, Initial residual = 1, Final residual = 1.31145668226e-06, No Iterations 7
time step continuity errors : sum local = 3.90236149491e-12, global = 1.71066265501e-12, cumulative = -0.000239321728983
smoothSolver:  Solving for alpha.water, Initial residual = 0.000258248000885, Final residual = 6.02969822434e-10, No Iterations 2
Phase-1 volume fraction = 0.561101824552  Min(alpha.water) = -6.03130335473e-07  Max(alpha.water) = 1.00062815041
Applying the previous iteration compression flux
MULES: Correcting alpha.water
MULES: Correcting alpha.water
MULES: Correcting alpha.water
Phase-1 volume fraction = 0.561101824552  Min(alpha.water) = -2.88514720566e-06  Max(alpha.water) = 1.00062815041
GAMGPCG:  Solving for p_rgh, Initial residual = 6.2101470703e-05, Final residual = 4.4134940821e-09, No Iterations 3
time step continuity errors : sum local = 3.44042909698e-08, global = -4.01165689637e-10, cumulative = -0.000239322130149
smoothSolver:  Solving for epsilon, Initial residual = 0.0207893298345, Final residual = 6.70337284129e-07, No Iterations 7
smoothSolver:  Solving for k, Initial residual = 0.0142388952077, Final residual = 3.7086725611e-07, No Iterations 7
ExecutionTime = 636.42 s  ClockTime = 640 s

End

